1
    SWAT Jun 01 2011    VER 2009/Rev. 481                                                                0/ 0/   0      0: 0: 0

    General Input/Output section (file.cio):                                        
    2022/4/11 0:00:00 ARCGIS-SWAT interface AV                                      
                                                                                    
         Number of years in run:   25
         Area of watershed:     1018.672 km2
         Random number generator cycles: 0, use default numbers

         Initial random number seed: wet/dry day prob        748932582
         Initial random number seed: radiation              1948832765
         Initial random number seed: precipitation           857034417
         Initial random number seed: 0.5 hr rainfall          67377721
         Initial random number seed: wind speed              366304404
         Initial random number seed: irrigation             1094585182
         Initial random number seed: relative humidity      1767585417
         Initial random number seed: max temperature         608439319
         Initial random number seed: min temperature         592757081

         Precipitation data used in run:
          Multiple gages read for watershed
             Daily rainfall data used

         Temperature data used in run:
          Multiple gages read for watershed

         PET method used: Penman-Monteith

         Rainfall/Runoff/Routing Option:
          Daily rainfall data
          Runoff estimated with curve number method
          Daily stream routing
           Variable Storage routing method
           Channel dimensions remain constant
           Subbasin algae/CBOD loadings modeled
           In-stream nutrient transformations modeled using QUAL2E equations

         Subbasin Input Summary:
          Sub Latitude  Elev(m) #HRUs Ponds Elevbnds Wetlnd
            1    25.49   632.42     3                   
            2    25.51   664.03     2                   
            3    25.47   361.47     3                   
            4    25.48   657.93     5                   
            5    25.45   386.92     3                   
            6    25.43   549.28     4                   
            7    25.45   505.49     3                   
            8    25.42   293.94     8                   
            9    25.39   231.23     7                   
           10    25.39   432.24    12                   
           11    25.42   604.16     6                   
           12    25.38   513.16    10                   
           13    25.43   735.39    10                   
           14    25.39   607.34    10                   
           15    25.39   299.65    11                   
           16    25.37   314.18    10                   
           17    25.39   464.86    12                   
           18    25.39   470.25     7                   
           19    25.36   610.87    12                   
           20    25.38   464.91    20                   
           21    25.35   213.77     6                   
           22    25.33   239.08     9                   
           23    25.35   572.56     3                   
           24    25.31   589.98    10                   
           25    25.33   378.43    14                   
           26    25.30   517.64     4                   
           27    25.35   342.10     9                   
           28    25.31   470.72     4                   
           29    25.30   392.96    11                   
           30    25.33   365.18    17                   
           31    25.31   298.93    11                   
           32    25.30   268.57     6                   
           33    25.28   489.18    12                   
           34    25.26   488.55     6                   
           35    25.27   330.83     9                   
           36    25.22   198.45     2                   
           37    25.22   305.81     5                   
           38    25.18   136.66     4                   

         HRU Input Summary Table 1:
          Sub   HRU   Area(ha) Slope SlpLgth(m) Ovrlnd_N CondII_CN TimeConc(hr) ESCO EPCO
            1     1    1195.51 0.489       9.15    0.100     79.00        0.310 0.95 1.00
            1     2     537.02 0.369       9.15    0.100     73.00        0.193 0.95 1.00
            1     3     115.08 0.350       9.15    0.150     83.00        0.124 0.95 1.00
            2     4    2645.51 0.410       9.15    0.100     79.00        0.661 0.95 1.00
            2     5     574.36 0.313       9.15    0.100     73.00        0.230 0.95 1.00
            3     6      25.32 0.186      18.29    0.140     84.00        0.180 0.95 1.00
            3     7     112.86 0.373       9.15    0.100     79.00        0.138 0.95 1.00
            3     8       8.25 0.051      60.98    0.100     86.22        0.409 0.95 1.00
            4     9    2238.50 0.376       9.15    0.100     79.00        0.749 0.95 1.00
            4    10     350.46 0.288       9.15    0.100     73.00        0.210 0.95 1.00
            4    11     108.19 0.178      18.29    0.150     83.00        0.219 0.95 1.00
            4    12      30.65 0.233      15.24    0.150     77.00        0.157 0.95 1.00
            4    13     103.00 0.103      60.98    0.150     83.00        0.461 0.95 1.00
            5    14    1153.65 0.391       9.15    0.100     79.00        0.604 0.95 1.00
            5    15     133.48 0.298       9.15    0.150     83.00        0.178 0.95 1.00
            5    16      76.12 0.327       9.15    0.010     92.00        0.068 0.95 1.00
            6    17      88.64 0.327       9.15    0.140     84.00        0.114 0.95 1.00
            6    18      26.72 0.275       9.15    0.140     81.00        0.103 0.95 1.00
            6    19    1198.40 0.409       9.15    0.100     79.00        0.305 0.95 1.00
            6    20     530.89 0.452       9.15    0.100     73.00        0.183 0.95 1.00
            7    21    5264.43 0.415       9.15    0.100     79.00        1.422 0.95 1.00
            7    22     377.98 0.369       9.15    0.150     83.00        0.226 0.95 1.00
            7    23      81.57 0.329       9.15    0.150     83.00        0.129 0.95 1.00
            8    24      38.48 0.218      15.24    0.140     84.00        0.168 0.95 1.00
            8    25      96.73 0.177      18.29    0.140     84.00        0.231 0.95 1.00
            8    26     218.27 0.340       9.15    0.100     79.00        0.209 0.95 1.00
            8    27     146.80 0.211      15.24    0.100     79.00        0.210 0.95 1.00
            8    28      81.59 0.254       9.15    0.150     83.00        0.159 0.95 1.00
            8    29      12.00 0.285       9.15    0.150     83.00        0.109 0.95 1.00
            8    30      11.61 0.182      18.29    0.100     86.22        0.144 0.95 1.00
            8    31      61.36 0.022      91.46    0.100     86.22        0.704 0.95 1.00
            9    32      27.21 0.113      60.98    0.140     73.00        0.412 0.95 1.00
            9    33      21.45 0.057      60.98    0.140     84.00        0.495 0.95 1.00
            9    34     124.74 0.223      15.24    0.100     60.00        0.206 0.95 1.00
            9    35      31.56 0.046      91.46    0.100     79.00        0.557 0.95 1.00
            9    36      13.32 0.247      15.24    0.150     66.00        0.152 0.95 1.00
            9    37       8.41 0.058      60.98    0.100     73.82        0.395 0.95 1.00
            9    38      18.71 0.010     121.95    0.100     86.22        1.010 0.95 1.00
           10    39      86.79 0.318       9.15    0.140     84.00        0.127 0.95 1.00
           10    40      46.90 0.161      18.29    0.140     81.00        0.190 0.95 1.00
           10    41      44.91 0.179      18.29    0.140     73.00        0.184 0.95 1.00
           10    42      32.87 0.085      60.98    0.140     84.00        0.437 0.95 1.00
           10    43     645.96 0.439       9.15    0.100     79.00        0.274 0.95 1.00
           10    44     365.80 0.601       9.15    0.100     60.00        0.187 0.95 1.00
           10    45     276.73 0.366       9.15    0.100     73.00        0.169 0.95 1.00
           10    46     173.71 0.289       9.15    0.100     60.00        0.142 0.95 1.00
           10    47      28.38 0.385       9.15    0.150     83.00        0.103 0.95 1.00
           10    48      17.89 0.443       9.15    0.150     66.00        0.095 0.95 1.00
           10    49      28.08 0.171      18.29    0.150     77.00        0.186 0.95 1.00
           10    50      20.79 0.176      18.29    0.150     66.00        0.182 0.95 1.00
           11    51      97.75 0.060      60.98    0.140     81.00        0.519 0.95 1.00
           11    52     106.48 0.076      60.98    0.140     84.00        0.490 0.95 1.00
           11    53    2011.81 0.299       9.15    0.100     79.00        0.786 0.95 1.00
           11    54     334.49 0.254       9.15    0.100     73.00        0.227 0.95 1.00
           11    55     244.79 0.236      15.24    0.150     83.00        0.253 0.95 1.00
           11    56     241.53 0.108      60.98    0.150     77.00        0.520 0.95 1.00
           12    57      26.40 0.350       9.15    0.140     84.00        0.099 0.95 1.00
           12    58     190.45 0.216      15.24    0.140     81.00        0.196 0.95 1.00
           12    59      49.40 0.356       9.15    0.140     84.00        0.106 0.95 1.00
           12    60     121.91 0.203      15.24    0.140     81.00        0.180 0.95 1.00
           12    61     729.69 0.433       9.15    0.100     79.00        0.255 0.95 1.00
           12    62     427.68 0.400       9.15    0.100     60.00        0.186 0.95 1.00
           12    63     343.51 0.395       9.15    0.100     73.00        0.166 0.95 1.00
           12    64     115.52 0.387       9.15    0.150     83.00        0.127 0.95 1.00
           12    65      39.23 0.360       9.15    0.150     66.00        0.106 0.95 1.00
           12    66     129.02 0.296       9.15    0.150     77.00        0.138 0.95 1.00
           13    67     442.61 0.287       9.15    0.140     81.00        0.164 0.95 1.00
           13    68     307.42 0.270       9.15    0.140     73.00        0.146 0.95 1.00
           13    69     296.18 0.248      15.24    0.140     81.00        0.182 0.95 1.00
           13    70    2090.15 0.389       9.15    0.100     73.00        0.342 0.95 1.00
           13    71    1585.12 0.388       9.15    0.100     60.00        0.283 0.95 1.00
           13    72    1279.68 0.342       9.15    0.100     73.00        0.250 0.95 1.00
           13    73     331.06 0.339       9.15    0.150     77.00        0.147 0.95 1.00
           13    74     177.59 0.336       9.15    0.150     66.00        0.125 0.95 1.00
           13    75     105.00 0.235      15.24    0.150     66.00        0.161 0.95 1.00
           13    76     375.28 0.296       9.15    0.150     77.00        0.157 0.95 1.00
           14    77     247.06 0.324       9.15    0.140     81.00        0.147 0.95 1.00
           14    78     220.60 0.339       9.15    0.140     73.00        0.141 0.95 1.00
           14    79     291.65 0.195      18.29    0.140     81.00        0.225 0.95 1.00
           14    80     107.74 0.052      60.98    0.140     84.00        0.516 0.95 1.00
           14    81    1254.66 0.350       9.15    0.100     60.00        0.308 0.95 1.00
           14    82    2419.13 0.345       9.15    0.100     73.00        0.491 0.95 1.00
           14    83      73.95 0.231      15.24    0.150     83.00        0.162 0.95 1.00
           14    84      94.67 0.311       9.15    0.150     66.00        0.120 0.95 1.00
           14    85     147.24 0.331       9.15    0.150     66.00        0.130 0.95 1.00
           14    86     338.24 0.304       9.15    0.150     77.00        0.171 0.95 1.00
           15    87      93.48 0.190      18.29    0.140     73.00        0.202 0.95 1.00
           15    88      32.59 0.205      15.24    0.140     81.00        0.157 0.95 1.00
           15    89      42.12 0.130      24.39    0.140     84.00        0.235 0.95 1.00
           15    90     177.00 0.374       9.15    0.100     79.00        0.143 0.95 1.00
           15    91     286.28 0.311       9.15    0.100     60.00        0.185 0.95 1.00
           15    92      57.16 0.344       9.15    0.100     73.00        0.100 0.95 1.00
           15    93      42.01 0.361       9.15    0.150     83.00        0.112 0.95 1.00
           15    94      25.92 0.292       9.15    0.150     66.00        0.111 0.95 1.00
           15    95      17.54 0.397       9.15    0.150     77.00        0.098 0.95 1.00
           15    96      15.38 0.172      18.29    0.100     73.82        0.144 0.95 1.00
           15    97      34.57 0.065      60.98    0.100     86.22        0.391 0.95 1.00
           16    98      49.45 0.278       9.15    0.140     84.00        0.111 0.95 1.00
           16    99      64.92 0.104      60.98    0.140     81.00        0.417 0.95 1.00
           16   100      31.13 0.160      18.29    0.140     84.00        0.180 0.95 1.00
           16   101     546.86 0.326       9.15    0.100     79.00        0.204 0.95 1.00
           16   102     228.50 0.543       9.15    0.100     60.00        0.124 0.95 1.00
           16   103     221.59 0.223      15.24    0.100     73.00        0.171 0.95 1.00
           16   104     212.01 0.243      15.24    0.150     83.00        0.197 0.95 1.00
           16   105     292.51 0.224      15.24    0.150     77.00        0.218 0.95 1.00
           16   106      15.92 0.208      15.24    0.100     81.88        0.121 0.95 1.00
           16   107      79.08 0.070      60.98    0.100     86.22        0.389 0.95 1.00
           17   108      47.59 0.208      15.24    0.140     84.00        0.154 0.95 1.00
           17   109     152.54 0.175      18.29    0.140     81.00        0.202 0.95 1.00
           17   110      24.19 0.075      60.98    0.140     84.00        0.445 0.95 1.00
           17   111      23.41 0.077      60.98    0.140     84.00        0.442 0.95 1.00
           17   112      54.65 0.282       9.15    0.140     73.00        0.109 0.95 1.00
           17   113     142.22 0.202      15.24    0.140     81.00        0.176 0.95 1.00
           17   114     844.30 0.394       9.15    0.100     79.00        0.234 0.95 1.00
           17   115     822.85 0.399       9.15    0.100     60.00        0.230 0.95 1.00
           17   116     954.09 0.289       9.15    0.100     73.00        0.259 0.95 1.00
           17   117     114.61 0.324       9.15    0.150     83.00        0.123 0.95 1.00
           17   118     247.85 0.382       9.15    0.150     66.00        0.146 0.95 1.00
           17   119     208.21 0.263       9.15    0.150     77.00        0.149 0.95 1.00
           18   120      83.10 0.216      15.24    0.140     84.00        0.160 0.95 1.00
           18   121      66.24 0.192      18.29    0.140     81.00        0.178 0.95 1.00
           18   122      70.85 0.117      60.98    0.140     84.00        0.402 0.95 1.00
           18   123    1843.97 0.402       9.15    0.100     79.00        0.388 0.95 1.00
           18   124     382.91 0.344       9.15    0.100     73.00        0.153 0.95 1.00
           18   125     118.59 0.308       9.15    0.150     83.00        0.125 0.95 1.00
           18   126      28.03 0.286       9.15    0.150     77.00        0.106 0.95 1.00
           19   127     901.06 0.364       9.15    0.100     79.00        0.263 0.95 1.00
           19   128     484.64 0.365       9.15    0.100     73.00        0.183 0.95 1.00
           19   129    1117.14 0.346       9.15    0.100     60.00        0.304 0.95 1.00
           19   130     443.61 0.356       9.15    0.100     73.00        0.175 0.95 1.00
           19   131     151.30 0.332       9.15    0.150     83.00        0.134 0.95 1.00
           19   132     223.43 0.290       9.15    0.150     66.00        0.154 0.95 1.00
           19   133      63.18 0.401       9.15    0.150     77.00        0.107 0.95 1.00
           19   134      36.57 0.320       9.15    0.100     86.22        0.086 0.95 1.00
           19   135      30.92 0.274       9.15    0.100     81.88        0.088 0.95 1.00
           19   136      78.90 0.250      15.24    0.100     73.82        0.131 0.95 1.00
           19   137      65.34 0.286       9.15    0.100     81.88        0.096 0.95 1.00
           19   138      49.54 0.085      60.98    0.100     86.22        0.360 0.95 1.00
           20   139     122.50 0.277       9.15    0.140     73.00        0.127 0.95 1.00
           20   140      63.45 0.119      60.98    0.140     73.00        0.400 0.95 1.00
           20   141     218.49 0.192      18.29    0.140     81.00        0.215 0.95 1.00
           20   142     204.04 0.121      24.39    0.140     84.00        0.270 0.95 1.00
           20   143      68.24 0.251       9.15    0.140     73.00        0.117 0.95 1.00
           20   144      74.63 0.283       9.15    0.140     81.00        0.115 0.95 1.00
           20   145      59.14 0.142      24.39    0.140     84.00        0.226 0.95 1.00
           20   146     226.01 0.335       9.15    0.100     79.00        0.129 0.95 1.00
           20   147     369.44 0.388       9.15    0.100     73.00        0.156 0.95 1.00
           20   148     240.18 0.436       9.15    0.100     60.00        0.126 0.95 1.00
           20   149     310.19 0.297       9.15    0.100     60.00        0.149 0.95 1.00
           20   150     625.58 0.379       9.15    0.100     73.00        0.206 0.95 1.00
           20   151     227.71 0.242      15.24    0.100     79.00        0.166 0.95 1.00
           20   152      60.77 0.366       9.15    0.150     66.00        0.109 0.95 1.00
           20   153      70.53 0.305       9.15    0.150     66.00        0.116 0.95 1.00
           20   154     181.54 0.288       9.15    0.150     77.00        0.144 0.95 1.00
           20   155      71.42 0.162      18.29    0.150     83.00        0.196 0.95 1.00
           20   156      39.39 0.130      24.39    0.100     73.82        0.187 0.95 1.00
           20   157      87.09 0.119      60.98    0.100     81.88        0.336 0.95 1.00
           20   158     150.65 0.107      60.98    0.100     86.22        0.361 0.95 1.00
           21   159      42.60 0.195      18.29    0.140     84.00        0.183 0.95 1.00
           21   160      89.44 0.104      60.98    0.140     84.00        0.441 0.95 1.00
           21   161     308.51 0.318       9.15    0.100     79.00        0.204 0.95 1.00
           21   162     279.76 0.205      15.24    0.100     79.00        0.234 0.95 1.00
           21   163      34.24 0.034      91.46    0.100     86.22        0.598 0.95 1.00
           21   164      88.38 0.050      60.98    0.100     86.22        0.447 0.95 1.00
           22   165     268.02 0.100      60.98    0.140     84.00        0.464 0.95 1.00
           22   166      76.47 0.041      91.46    0.140     84.00        0.690 0.95 1.00
           22   167      99.56 0.353       9.15    0.100     60.00        0.098 0.95 1.00
           22   168     346.39 0.309       9.15    0.100     79.00        0.153 0.95 1.00
           22   169      98.63 0.372       9.15    0.100     73.00        0.097 0.95 1.00
           22   170      81.44 0.364       9.15    0.150     66.00        0.113 0.95 1.00
           22   171      17.71 0.355       9.15    0.150     77.00        0.097 0.95 1.00
           22   172     152.63 0.054      60.98    0.100     86.22        0.433 0.95 1.00
           22   173      53.29 0.039      91.46    0.100     86.22        0.570 0.95 1.00
           23   174    2524.67 0.427       9.15    0.100     79.00        0.556 0.95 1.00
           23   175     181.96 0.302       9.15    0.150     83.00        0.145 0.95 1.00
           23   176     105.28 0.253       9.15    0.150     77.00        0.132 0.95 1.00
           24   177      35.80 0.118      60.98    0.140     73.00        0.395 0.95 1.00
           24   178     120.51 0.150      24.39    0.140     84.00        0.242 0.95 1.00
           24   179     449.22 0.336       9.15    0.100     79.00        0.190 0.95 1.00
           24   180     241.18 0.325       9.15    0.100     73.00        0.141 0.95 1.00
           24   181     739.47 0.423       9.15    0.100     60.00        0.248 0.95 1.00
           24   182     565.60 0.358       9.15    0.100     73.00        0.214 0.95 1.00
           24   183      24.33 0.155      24.39    0.150     83.00        0.221 0.95 1.00
           24   184      88.02 0.319       9.15    0.150     77.00        0.123 0.95 1.00
           24   185      39.07 0.323       9.15    0.150     66.00        0.108 0.95 1.00
           24   186      37.35 0.331       9.15    0.150     77.00        0.107 0.95 1.00
           25   187     121.82 0.168      18.29    0.140     73.00        0.201 0.95 1.00
           25   188      28.38 0.286       9.15    0.140     81.00        0.103 0.95 1.00
           25   189      30.53 0.129      24.39    0.140     84.00        0.225 0.95 1.00
           25   190      83.92 0.178      18.29    0.140     73.00        0.189 0.95 1.00
           25   191      26.42 0.238      15.24    0.140     84.00        0.144 0.95 1.00
           25   192     151.51 0.417       9.15    0.100     79.00        0.110 0.95 1.00
           25   193     580.92 0.247      15.24    0.100     60.00        0.244 0.95 1.00
           25   194     455.36 0.353       9.15    0.100     73.00        0.181 0.95 1.00
           25   195     158.98 0.234      15.24    0.100     79.00        0.154 0.95 1.00
           25   196      48.96 0.230      15.24    0.150     66.00        0.157 0.95 1.00
           25   197      34.04 0.300       9.15    0.150     77.00        0.108 0.95 1.00
           25   198      74.12 0.254       9.15    0.150     83.00        0.124 0.95 1.00
           25   199     129.31 0.137      24.39    0.100     73.82        0.209 0.95 1.00
           25   200     125.91 0.164      18.29    0.100     86.22        0.173 0.95 1.00
           26   201     970.18 0.320       9.15    0.100     79.00        0.257 0.95 1.00
           26   202     421.70 0.318       9.15    0.100     73.00        0.163 0.95 1.00
           26   203     327.22 0.307       9.15    0.150     83.00        0.166 0.95 1.00
           26   204      81.50 0.255       9.15    0.150     77.00        0.122 0.95 1.00
           27   205      96.50 0.280       9.15    0.140     84.00        0.125 0.95 1.00
           27   206      51.32 0.190      18.29    0.140     73.00        0.178 0.95 1.00
           27   207      73.46 0.303       9.15    0.140     81.00        0.116 0.95 1.00
           27   208      83.72 0.250       9.15    0.140     84.00        0.124 0.95 1.00
           27   209    3103.76 0.374       9.15    0.100     79.00        0.699 0.95 1.00
           27   210     988.50 0.346       9.15    0.100     60.00        0.303 0.95 1.00
           27   211     310.66 0.352       9.15    0.150     83.00        0.176 0.95 1.00
           27   212     324.33 0.322       9.15    0.150     66.00        0.181 0.95 1.00
           27   213     245.79 0.258       9.15    0.150     83.00        0.169 0.95 1.00
           28   214    3391.21 0.398       9.15    0.100     79.00        0.679 0.95 1.00
           28   215     496.80 0.315       9.15    0.100     73.00        0.188 0.95 1.00
           28   216     212.40 0.312       9.15    0.150     83.00        0.149 0.95 1.00
           28   217     265.21 0.317       9.15    0.150     77.00        0.160 0.95 1.00
           29   218      51.57 0.220      15.24    0.140     81.00        0.157 0.95 1.00
           29   219     100.98 0.096      60.98    0.140     84.00        0.441 0.95 1.00
           29   220      16.80 0.197      18.29    0.140     73.00        0.166 0.95 1.00
           29   221      41.55 0.265       9.15    0.140     81.00        0.112 0.95 1.00
           29   222      28.58 0.103      60.98    0.140     84.00        0.410 0.95 1.00
           29   223     527.63 0.430       9.15    0.100     60.00        0.216 0.95 1.00
           29   224     172.13 0.279       9.15    0.100     73.00        0.133 0.95 1.00
           29   225     148.61 0.220      15.24    0.100     79.00        0.162 0.95 1.00
           29   226       9.33 0.056      60.98    0.100     73.82        0.395 0.95 1.00
           29   227       8.84 0.234      15.24    0.100     81.88        0.115 0.95 1.00
           29   228      60.02 0.073      60.98    0.100     86.22        0.383 0.95 1.00
           30   229     184.52 0.053      60.98    0.140     84.00        0.524 0.95 1.00
           30   230     174.89 0.171      18.29    0.140     73.00        0.203 0.95 1.00
           30   231     115.58 0.199      18.29    0.140     81.00        0.184 0.95 1.00
           30   232      71.48 0.100      60.98    0.140     84.00        0.418 0.95 1.00
           30   233      81.59 0.354       9.15    0.140     84.00        0.107 0.95 1.00
           30   234      49.91 0.257       9.15    0.140     73.00        0.109 0.95 1.00
           30   235     122.19 0.315       9.15    0.140     81.00        0.118 0.95 1.00
           30   236      41.08 0.156      24.39    0.140     84.00        0.213 0.95 1.00
           30   237     967.05 0.353       9.15    0.100     79.00        0.236 0.95 1.00
           30   238    1518.92 0.388       9.15    0.100     60.00        0.314 0.95 1.00
           30   239     910.92 0.354       9.15    0.100     73.00        0.228 0.95 1.00
           30   240     156.68 0.360       9.15    0.150     83.00        0.125 0.95 1.00
           30   241     245.22 0.381       9.15    0.150     66.00        0.139 0.95 1.00
           30   242     125.78 0.357       9.15    0.150     77.00        0.119 0.95 1.00
           30   243     181.59 0.102      60.98    0.100     86.22        0.364 0.95 1.00
           30   244      95.12 0.126      24.39    0.100     73.82        0.198 0.95 1.00
           30   245      64.10 0.214      15.24    0.100     81.88        0.129 0.95 1.00
           31   246     242.03 0.209      15.24    0.140     73.00        0.190 0.95 1.00
           31   247     485.22 0.174      18.29    0.140     84.00        0.257 0.95 1.00
           31   248     391.94 0.129      24.39    0.140     81.00        0.291 0.95 1.00
           31   249     788.59 0.102      60.98    0.140     84.00        0.540 0.95 1.00
           31   250    2817.17 0.403       9.15    0.100     79.00        0.498 0.95 1.00
           31   251     989.74 0.401       9.15    0.100     60.00        0.241 0.95 1.00
           31   252     765.34 0.335       9.15    0.100     73.00        0.210 0.95 1.00
           31   253     669.79 0.336       9.15    0.100     79.00        0.195 0.95 1.00
           31   254     225.66 0.086      60.98    0.100     86.22        0.391 0.95 1.00
           31   255     203.99 0.092      60.98    0.100     81.88        0.380 0.95 1.00
           31   256     547.07 0.056      60.98    0.100     86.22        0.493 0.95 1.00
           32   257      17.99 0.374       9.15    0.140     84.00        0.097 0.95 1.00
           32   258      89.02 0.202      15.24    0.140     73.00        0.184 0.95 1.00
           32   259     278.12 0.394       9.15    0.100     79.00        0.184 0.95 1.00
           32   260     339.35 0.363       9.15    0.100     60.00        0.208 0.95 1.00
           32   261      61.03 0.335       9.15    0.150     83.00        0.124 0.95 1.00
           32   262      35.12 0.234      15.24    0.150     66.00        0.160 0.95 1.00
           33   263      63.78 0.177      18.29    0.140     73.00        0.197 0.95 1.00
           33   264     133.26 0.099      60.98    0.140     81.00        0.465 0.95 1.00
           33   265      30.88 0.163      18.29    0.140     84.00        0.186 0.95 1.00
           33   266     568.53 0.354       9.15    0.100     79.00        0.292 0.95 1.00
           33   267     487.23 0.324       9.15    0.100     60.00        0.266 0.95 1.00
           33   268     318.70 0.316       9.15    0.100     79.00        0.207 0.95 1.00
           33   269     106.27 0.306       9.15    0.150     83.00        0.147 0.95 1.00
           33   270      63.68 0.222      15.24    0.150     66.00        0.176 0.95 1.00
           33   271      90.22 0.128      24.39    0.150     77.00        0.268 0.95 1.00
           33   272      33.60 0.210      15.24    0.100     86.22        0.133 0.95 1.00
           33   273      28.55 0.163      18.29    0.100     73.82        0.154 0.95 1.00
           33   274      55.34 0.102      60.98    0.100     81.88        0.355 0.95 1.00
           34   275      56.69 0.320       9.15    0.140     84.00        0.109 0.95 1.00
           34   276      33.03 0.280       9.15    0.140     84.00        0.106 0.95 1.00
           34   277      42.22 0.381       9.15    0.140     84.00        0.100 0.95 1.00
           34   278      72.27 0.292       9.15    0.140     84.00        0.116 0.95 1.00
           34   279    1340.14 0.465       9.15    0.100     79.00        0.353 0.95 1.00
           34   280     174.24 0.386       9.15    0.100     79.00        0.118 0.95 1.00
           35   281      61.25 0.277       9.15    0.140     84.00        0.111 0.95 1.00
           35   282     152.78 0.256       9.15    0.140     73.00        0.134 0.95 1.00
           35   283      55.87 0.128      24.39    0.140     84.00        0.230 0.95 1.00
           35   284    1681.78 0.398       9.15    0.100     79.00        0.369 0.95 1.00
           35   285     540.42 0.351       9.15    0.100     60.00        0.183 0.95 1.00
           35   286     432.65 0.404       9.15    0.100     73.00        0.161 0.95 1.00
           35   287     140.84 0.258       9.15    0.150     66.00        0.135 0.95 1.00
           35   288      34.95 0.244      15.24    0.150     83.00        0.150 0.95 1.00
           35   289      54.91 0.244      15.24    0.150     77.00        0.154 0.95 1.00
           36   290    1502.55 0.348       9.15    0.100     79.00        0.498 0.95 1.00
           36   291     198.25 0.292       9.15    0.150     83.00        0.170 0.95 1.00
           37   292     181.22 0.198      18.29    0.140     84.00        0.189 0.95 1.00
           37   293      61.75 0.171      18.29    0.140     81.00        0.178 0.95 1.00
           37   294      61.08 0.157      24.39    0.140     84.00        0.214 0.95 1.00
           37   295    2914.70 0.399       9.15    0.100     79.00        0.411 0.95 1.00
           37   296     449.91 0.316       9.15    0.100     73.00        0.141 0.95 1.00
           38   297     235.05 0.279       9.15    0.100     79.00        0.141 0.95 1.00
           38   298     429.26 0.348       9.15    0.100     73.00        0.181 0.95 1.00
           38   299      76.04 0.232      15.24    0.010     92.00        0.052 0.95 1.00
           38   300      34.40 0.124      24.39    0.010     92.00        0.057 0.95 1.00

         HRU CN Input Summary Table:
          Sub   HRU   Area(ha)  LULC      Soil    CN1    CN2    CN3  Wilting Point (mm H2O)  Field Capacity (mm H2O)  Saturation (mm H2O)
            1     1    1195.51  FRST  GLH        61.7   79.0   91.0                   227.7                    107.3                214.9
            1     2     537.02  FRST  HHR        54.5   73.0   87.5                   158.5                    121.7                232.2
            1     3     115.08  ORCD  GLH        67.0   83.0   93.1                   227.7                    107.3                214.9
            2     4    2645.51  FRST  GLH        61.7   79.0   91.0                   227.7                    107.3                214.9
            2     5     574.36  FRST  HHR        54.5   73.0   87.5                   158.5                    121.7                232.2
            3     6      25.32  RICE  GLH        68.4   84.0   93.5                   227.7                    107.3                214.9
            3     7     112.86  FRST  GLH        61.7   79.0   91.0                   227.7                    107.3                214.9
            3     8       8.25  BERM  GLH        71.7   86.2   94.6                   227.7                    107.3                214.9
            4     9    2238.50  FRST  GLH        61.7   79.0   91.0                   227.7                    107.3                214.9
            4    10     350.46  FRST  HHR        54.5   73.0   87.5                   158.5                    121.7                232.2
            4    11     108.19  ORCD  GLH        67.0   83.0   93.1                   227.7                    107.3                214.9
            4    12      30.65  ORCD  HHR        59.3   77.0   89.9                   158.5                    121.7                232.2
            4    13     103.00  ORCD  ZSDT       67.0   83.0   93.1                   179.7                    110.5                156.1
            5    14    1153.65  FRST  GLH        61.7   79.0   91.0                   227.7                    107.3                214.9
            5    15     133.48  ORCD  GLH        67.0   83.0   93.1                   227.7                    107.3                214.9
            5    16      76.12  WATR  GLH        81.7   92.0   97.1                   227.7                    107.3                214.9
            6    17      88.64  RICE  GLH        68.4   84.0   93.5                   227.7                    107.3                214.9
            6    18      26.72  RICE  SSDT       64.3   81.0   92.0                   163.7                     92.0                155.7
            6    19    1198.40  FRST  GLH        61.7   79.0   91.0                   227.7                    107.3                214.9
            6    20     530.89  FRST  SSDT       54.5   73.0   87.5                   163.7                     92.0                155.7
            7    21    5264.43  FRST  GLH        61.7   79.0   91.0                   227.7                    107.3                214.9
            7    22     377.98  ORCD  GLH        67.0   83.0   93.1                   227.7                    107.3                214.9
            7    23      81.57  ORCD  ZSDT       67.0   83.0   93.1                   179.7                    110.5                156.1
            8    24      38.48  RICE  GLH        68.4   84.0   93.5                   227.7                    107.3                214.9
            8    25      96.73  RICE  ZSDT       68.4   84.0   93.5                   179.7                    110.5                156.1
            8    26     218.27  FRST  GLH        61.7   79.0   91.0                   227.7                    107.3                214.9
            8    27     146.80  FRST  ZSDT       61.7   79.0   91.0                   179.7                    110.5                156.1
            8    28      81.59  ORCD  GLH        67.0   83.0   93.1                   227.7                    107.3                214.9
            8    29      12.00  ORCD  ZSDT       67.0   83.0   93.1                   179.7                    110.5                156.1
            8    30      11.61  BERM  GLH        71.7   86.2   94.6                   227.7                    107.3                214.9
            8    31      61.36  BERM  ZSDT       71.7   86.2   94.6                   179.7                    110.5                156.1
            9    32      27.21  RICE  LGH        54.5   73.0   87.5                   363.5                    253.4                454.7
            9    33      21.45  RICE  ZSDT       68.4   84.0   93.5                   179.7                    110.5                156.1
            9    34     124.74  FRST  LGH        40.5   60.0   78.5                   363.5                    253.4                454.7
            9    35      31.56  FRST  ZSDT       61.7   79.0   91.0                   179.7                    110.5                156.1
            9    36      13.32  ORCD  LGH        46.8   66.0   83.0                   363.5                    253.4                454.7
            9    37       8.41  BERM  LGH        55.5   73.8   88.0                   363.5                    253.4                454.7
            9    38      18.71  BERM  ZSDT       71.7   86.2   94.6                   179.7                    110.5                156.1
           10    39      86.79  RICE  GLH        68.4   84.0   93.5                   227.7                    107.3                214.9
           10    40      46.90  RICE  SSDT       64.3   81.0   92.0                   163.7                     92.0                155.7
           10    41      44.91  RICE  SZT        54.5   73.0   87.5                     4.2                      6.3                 37.6
           10    42      32.87  RICE  ZSDT       68.4   84.0   93.5                   179.7                    110.5                156.1
           10    43     645.96  FRST  GLH        61.7   79.0   91.0                   227.7                    107.3                214.9
           10    44     365.80  FRST  HRXT       40.5   60.0   78.5                    30.6                    136.2                254.0
           10    45     276.73  FRST  SSDT       54.5   73.0   87.5                   163.7                     92.0                155.7
           10    46     173.71  FRST  SZT        40.5   60.0   78.5                     4.2                      6.3                 37.6
           10    47      28.38  ORCD  GLH        67.0   83.0   93.1                   227.7                    107.3                214.9
           10    48      17.89  ORCD  HRXT       46.8   66.0   83.0                    30.6                    136.2                254.0
           10    49      28.08  ORCD  SSDT       59.3   77.0   89.9                   163.7                     92.0                155.7
           10    50      20.79  ORCD  SZT        46.8   66.0   83.0                     4.2                      6.3                 37.6
           11    51      97.75  RICE  SSDT       64.3   81.0   92.0                   163.7                     92.0                155.7
           11    52     106.48  RICE  ZSDT       68.4   84.0   93.5                   179.7                    110.5                156.1
           11    53    2011.81  FRST  GLH        61.7   79.0   91.0                   227.7                    107.3                214.9
           11    54     334.49  FRST  SSDT       54.5   73.0   87.5                   163.7                     92.0                155.7
           11    55     244.79  ORCD  GLH        67.0   83.0   93.1                   227.7                    107.3                214.9
           11    56     241.53  ORCD  SSDT       59.3   77.0   89.9                   163.7                     92.0                155.7
           12    57      26.40  RICE  GLH        68.4   84.0   93.5                   227.7                    107.3                214.9
           12    58     190.45  RICE  SSDT       64.3   81.0   92.0                   163.7                     92.0                155.7
           12    59      49.40  WWHT  GLH        68.4   84.0   93.5                   227.7                    107.3                214.9
           12    60     121.91  WWHT  SSDT       64.3   81.0   92.0                   163.7                     92.0                155.7
           12    61     729.69  FRST  GLH        61.7   79.0   91.0                   227.7                    107.3                214.9
           12    62     427.68  FRST  LGH        40.5   60.0   78.5                   363.5                    253.4                454.7
           12    63     343.51  FRST  SSDT       54.5   73.0   87.5                   163.7                     92.0                155.7
           12    64     115.52  ORCD  GLH        67.0   83.0   93.1                   227.7                    107.3                214.9
           12    65      39.23  ORCD  LGH        46.8   66.0   83.0                   363.5                    253.4                454.7
           12    66     129.02  ORCD  SSDT       59.3   77.0   89.9                   163.7                     92.0                155.7
           13    67     442.61  RICE  HHR        64.3   81.0   92.0                   158.5                    121.7                232.2
           13    68     307.42  RICE  HUR        54.5   73.0   87.5                   216.1                    211.7                485.7
           13    69     296.18  RICE  SSDT       64.3   81.0   92.0                   163.7                     92.0                155.7
           13    70    2090.15  FRST  HHR        54.5   73.0   87.5                   158.5                    121.7                232.2
           13    71    1585.12  FRST  HUR        40.5   60.0   78.5                   216.1                    211.7                485.7
           13    72    1279.68  FRST  SSDT       54.5   73.0   87.5                   163.7                     92.0                155.7
           13    73     331.06  ORCD  HHR        59.3   77.0   89.9                   158.5                    121.7                232.2
           13    74     177.59  ORCD  HUR        46.8   66.0   83.0                   216.1                    211.7                485.7
           13    75     105.00  ORCD  LGH        46.8   66.0   83.0                   363.5                    253.4                454.7
           13    76     375.28  ORCD  SSDT       59.3   77.0   89.9                   163.7                     92.0                155.7
           14    77     247.06  RICE  HHR        64.3   81.0   92.0                   158.5                    121.7                232.2
           14    78     220.60  RICE  LGH        54.5   73.0   87.5                   363.5                    253.4                454.7
           14    79     291.65  RICE  SSDT       64.3   81.0   92.0                   163.7                     92.0                155.7
           14    80     107.74  RICE  ZSDT       68.4   84.0   93.5                   179.7                    110.5                156.1
           14    81    1254.66  FRST  LGH        40.5   60.0   78.5                   363.5                    253.4                454.7
           14    82    2419.13  FRST  SSDT       54.5   73.0   87.5                   163.7                     92.0                155.7
           14    83      73.95  ORCD  GLH        67.0   83.0   93.1                   227.7                    107.3                214.9
           14    84      94.67  ORCD  HUR        46.8   66.0   83.0                   216.1                    211.7                485.7
           14    85     147.24  ORCD  LGH        46.8   66.0   83.0                   363.5                    253.4                454.7
           14    86     338.24  ORCD  SSDT       59.3   77.0   89.9                   163.7                     92.0                155.7
           15    87      93.48  RICE  LGH        54.5   73.0   87.5                   363.5                    253.4                454.7
           15    88      32.59  RICE  SSDT       64.3   81.0   92.0                   163.7                     92.0                155.7
           15    89      42.12  RICE  ZSDT       68.4   84.0   93.5                   179.7                    110.5                156.1
           15    90     177.00  FRST  GLH        61.7   79.0   91.0                   227.7                    107.3                214.9
           15    91     286.28  FRST  LGH        40.5   60.0   78.5                   363.5                    253.4                454.7
           15    92      57.16  FRST  SSDT       54.5   73.0   87.5                   163.7                     92.0                155.7
           15    93      42.01  ORCD  GLH        67.0   83.0   93.1                   227.7                    107.3                214.9
           15    94      25.92  ORCD  LGH        46.8   66.0   83.0                   363.5                    253.4                454.7
           15    95      17.54  ORCD  SSDT       59.3   77.0   89.9                   163.7                     92.0                155.7
           15    96      15.38  BERM  LGH        55.5   73.8   88.0                   363.5                    253.4                454.7
           15    97      34.57  BERM  ZSDT       71.7   86.2   94.6                   179.7                    110.5                156.1
           16    98      49.45  RICE  GLH        68.4   84.0   93.5                   227.7                    107.3                214.9
           16    99      64.92  RICE  SSDT       64.3   81.0   92.0                   163.7                     92.0                155.7
           16   100      31.13  RICE  ZSDT       68.4   84.0   93.5                   179.7                    110.5                156.1
           16   101     546.86  FRST  GLH        61.7   79.0   91.0                   227.7                    107.3                214.9
           16   102     228.50  FRST  HRXT       40.5   60.0   78.5                    30.6                    136.2                254.0
           16   103     221.59  FRST  SSDT       54.5   73.0   87.5                   163.7                     92.0                155.7
           16   104     212.01  ORCD  GLH        67.0   83.0   93.1                   227.7                    107.3                214.9
           16   105     292.51  ORCD  SSDT       59.3   77.0   89.9                   163.7                     92.0                155.7
           16   106      15.92  BERM  SSDT       65.5   81.9   92.5                   163.7                     92.0                155.7
           16   107      79.08  BERM  ZSDT       71.7   86.2   94.6                   179.7                    110.5                156.1
           17   108      47.59  RICE  GLH        68.4   84.0   93.5                   227.7                    107.3                214.9
           17   109     152.54  RICE  SSDT       64.3   81.0   92.0                   163.7                     92.0                155.7
           17   110      24.19  RICE  ZSDT       68.4   84.0   93.5                   179.7                    110.5                156.1
           17   111      23.41  WWHT  GLH        68.4   84.0   93.5                   227.7                    107.3                214.9
           17   112      54.65  WWHT  LGH        54.5   73.0   87.5                   363.5                    253.4                454.7
           17   113     142.22  WWHT  SSDT       64.3   81.0   92.0                   163.7                     92.0                155.7
           17   114     844.30  FRST  GLH        61.7   79.0   91.0                   227.7                    107.3                214.9
           17   115     822.85  FRST  LGH        40.5   60.0   78.5                   363.5                    253.4                454.7
           17   116     954.09  FRST  SSDT       54.5   73.0   87.5                   163.7                     92.0                155.7
           17   117     114.61  ORCD  GLH        67.0   83.0   93.1                   227.7                    107.3                214.9
           17   118     247.85  ORCD  LGH        46.8   66.0   83.0                   363.5                    253.4                454.7
           17   119     208.21  ORCD  SSDT       59.3   77.0   89.9                   163.7                     92.0                155.7
           18   120      83.10  RICE  GLH        68.4   84.0   93.5                   227.7                    107.3                214.9
           18   121      66.24  RICE  SSDT       64.3   81.0   92.0                   163.7                     92.0                155.7
           18   122      70.85  RICE  ZSDT       68.4   84.0   93.5                   179.7                    110.5                156.1
           18   123    1843.97  FRST  GLH        61.7   79.0   91.0                   227.7                    107.3                214.9
           18   124     382.91  FRST  SSDT       54.5   73.0   87.5                   163.7                     92.0                155.7
           18   125     118.59  ORCD  GLH        67.0   83.0   93.1                   227.7                    107.3                214.9
           18   126      28.03  ORCD  SSDT       59.3   77.0   89.9                   163.7                     92.0                155.7
           19   127     901.06  FRST  GLH        61.7   79.0   91.0                   227.7                    107.3                214.9
           19   128     484.64  FRST  HHR        54.5   73.0   87.5                   158.5                    121.7                232.2
           19   129    1117.14  FRST  LGH        40.5   60.0   78.5                   363.5                    253.4                454.7
           19   130     443.61  FRST  SSDT       54.5   73.0   87.5                   163.7                     92.0                155.7
           19   131     151.30  ORCD  GLH        67.0   83.0   93.1                   227.7                    107.3                214.9
           19   132     223.43  ORCD  LGH        46.8   66.0   83.0                   363.5                    253.4                454.7
           19   133      63.18  ORCD  SSDT       59.3   77.0   89.9                   163.7                     92.0                155.7
           19   134      36.57  BERM  GLH        71.7   86.2   94.6                   227.7                    107.3                214.9
           19   135      30.92  BERM  HHR        65.5   81.9   92.5                   158.5                    121.7                232.2
           19   136      78.90  BERM  LGH        55.5   73.8   88.0                   363.5                    253.4                454.7
           19   137      65.34  BERM  SSDT       65.5   81.9   92.5                   163.7                     92.0                155.7
           19   138      49.54  BERM  ZSDT       71.7   86.2   94.6                   179.7                    110.5                156.1
           20   139     122.50  RICE  HUR        54.5   73.0   87.5                   216.1                    211.7                485.7
           20   140      63.45  RICE  LGH        54.5   73.0   87.5                   363.5                    253.4                454.7
           20   141     218.49  RICE  SSDT       64.3   81.0   92.0                   163.7                     92.0                155.7
           20   142     204.04  RICE  ZSDT       68.4   84.0   93.5                   179.7                    110.5                156.1
           20   143      68.24  WWHT  LGH        54.5   73.0   87.5                   363.5                    253.4                454.7
           20   144      74.63  WWHT  SSDT       64.3   81.0   92.0                   163.7                     92.0                155.7
           20   145      59.14  WWHT  ZSDT       68.4   84.0   93.5                   179.7                    110.5                156.1
           20   146     226.01  FRST  GLH        61.7   79.0   91.0                   227.7                    107.3                214.9
           20   147     369.44  FRST  HHR        54.5   73.0   87.5                   158.5                    121.7                232.2
           20   148     240.18  FRST  HUR        40.5   60.0   78.5                   216.1                    211.7                485.7
           20   149     310.19  FRST  LGH        40.5   60.0   78.5                   363.5                    253.4                454.7
           20   150     625.58  FRST  SSDT       54.5   73.0   87.5                   163.7                     92.0                155.7
           20   151     227.71  FRST  ZSDT       61.7   79.0   91.0                   179.7                    110.5                156.1
           20   152      60.77  ORCD  HUR        46.8   66.0   83.0                   216.1                    211.7                485.7
           20   153      70.53  ORCD  LGH        46.8   66.0   83.0                   363.5                    253.4                454.7
           20   154     181.54  ORCD  SSDT       59.3   77.0   89.9                   163.7                     92.0                155.7
           20   155      71.42  ORCD  ZSDT       67.0   83.0   93.1                   179.7                    110.5                156.1
           20   156      39.39  BERM  LGH        55.5   73.8   88.0                   363.5                    253.4                454.7
           20   157      87.09  BERM  SSDT       65.5   81.9   92.5                   163.7                     92.0                155.7
           20   158     150.65  BERM  ZSDT       71.7   86.2   94.6                   179.7                    110.5                156.1
           21   159      42.60  RICE  GLH        68.4   84.0   93.5                   227.7                    107.3                214.9
           21   160      89.44  RICE  ZSDT       68.4   84.0   93.5                   179.7                    110.5                156.1
           21   161     308.51  FRST  GLH        61.7   79.0   91.0                   227.7                    107.3                214.9
           21   162     279.76  FRST  ZSDT       61.7   79.0   91.0                   179.7                    110.5                156.1
           21   163      34.24  BERM  GLH        71.7   86.2   94.6                   227.7                    107.3                214.9
           21   164      88.38  BERM  ZSDT       71.7   86.2   94.6                   179.7                    110.5                156.1
           22   165     268.02  RICE  GLH        68.4   84.0   93.5                   227.7                    107.3                214.9
           22   166      76.47  RICE  ZSDT       68.4   84.0   93.5                   179.7                    110.5                156.1
           22   167      99.56  FRST  CST        40.5   60.0   78.5                    62.1                     58.0                208.4
           22   168     346.39  FRST  GLH        61.7   79.0   91.0                   227.7                    107.3                214.9
           22   169      98.63  FRST  SSDT       54.5   73.0   87.5                   163.7                     92.0                155.7
           22   170      81.44  ORCD  CST        46.8   66.0   83.0                    62.1                     58.0                208.4
           22   171      17.71  ORCD  SSDT       59.3   77.0   89.9                   163.7                     92.0                155.7
           22   172     152.63  BERM  GLH        71.7   86.2   94.6                   227.7                    107.3                214.9
           22   173      53.29  BERM  ZSDT       71.7   86.2   94.6                   179.7                    110.5                156.1
           23   174    2524.67  FRST  GLH        61.7   79.0   91.0                   227.7                    107.3                214.9
           23   175     181.96  ORCD  GLH        67.0   83.0   93.1                   227.7                    107.3                214.9
           23   176     105.28  ORCD  SSDT       59.3   77.0   89.9                   163.7                     92.0                155.7
           24   177      35.80  RICE  LGH        54.5   73.0   87.5                   363.5                    253.4                454.7
           24   178     120.51  RICE  ZSDT       68.4   84.0   93.5                   179.7                    110.5                156.1
           24   179     449.22  FRST  GLH        61.7   79.0   91.0                   227.7                    107.3                214.9
           24   180     241.18  FRST  HHR        54.5   73.0   87.5                   158.5                    121.7                232.2
           24   181     739.47  FRST  LGH        40.5   60.0   78.5                   363.5                    253.4                454.7
           24   182     565.60  FRST  SSDT       54.5   73.0   87.5                   163.7                     92.0                155.7
           24   183      24.33  ORCD  GLH        67.0   83.0   93.1                   227.7                    107.3                214.9
           24   184      88.02  ORCD  HHR        59.3   77.0   89.9                   158.5                    121.7                232.2
           24   185      39.07  ORCD  LGH        46.8   66.0   83.0                   363.5                    253.4                454.7
           24   186      37.35  ORCD  SSDT       59.3   77.0   89.9                   163.7                     92.0                155.7
           25   187     121.82  RICE  LGH        54.5   73.0   87.5                   363.5                    253.4                454.7
           25   188      28.38  RICE  SSDT       64.3   81.0   92.0                   163.7                     92.0                155.7
           25   189      30.53  RICE  ZSDT       68.4   84.0   93.5                   179.7                    110.5                156.1
           25   190      83.92  WWHT  LGH        54.5   73.0   87.5                   363.5                    253.4                454.7
           25   191      26.42  WWHT  ZSDT       68.4   84.0   93.5                   179.7                    110.5                156.1
           25   192     151.51  FRST  GLH        61.7   79.0   91.0                   227.7                    107.3                214.9
           25   193     580.92  FRST  LGH        40.5   60.0   78.5                   363.5                    253.4                454.7
           25   194     455.36  FRST  SSDT       54.5   73.0   87.5                   163.7                     92.0                155.7
           25   195     158.98  FRST  ZSDT       61.7   79.0   91.0                   179.7                    110.5                156.1
           25   196      48.96  ORCD  LGH        46.8   66.0   83.0                   363.5                    253.4                454.7
           25   197      34.04  ORCD  SSDT       59.3   77.0   89.9                   163.7                     92.0                155.7
           25   198      74.12  ORCD  ZSDT       67.0   83.0   93.1                   179.7                    110.5                156.1
           25   199     129.31  BERM  LGH        55.5   73.8   88.0                   363.5                    253.4                454.7
           25   200     125.91  BERM  ZSDT       71.7   86.2   94.6                   179.7                    110.5                156.1
           26   201     970.18  FRST  GLH        61.7   79.0   91.0                   227.7                    107.3                214.9
           26   202     421.70  FRST  SSDT       54.5   73.0   87.5                   163.7                     92.0                155.7
           26   203     327.22  ORCD  GLH        67.0   83.0   93.1                   227.7                    107.3                214.9
           26   204      81.50  ORCD  SSDT       59.3   77.0   89.9                   163.7                     92.0                155.7
           27   205      96.50  RICE  GLH        68.4   84.0   93.5                   227.7                    107.3                214.9
           27   206      51.32  RICE  LGH        54.5   73.0   87.5                   363.5                    253.4                454.7
           27   207      73.46  RICE  SSDT       64.3   81.0   92.0                   163.7                     92.0                155.7
           27   208      83.72  RICE  ZSDT       68.4   84.0   93.5                   179.7                    110.5                156.1
           27   209    3103.76  FRST  GLH        61.7   79.0   91.0                   227.7                    107.3                214.9
           27   210     988.50  FRST  LGH        40.5   60.0   78.5                   363.5                    253.4                454.7
           27   211     310.66  ORCD  GLH        67.0   83.0   93.1                   227.7                    107.3                214.9
           27   212     324.33  ORCD  LGH        46.8   66.0   83.0                   363.5                    253.4                454.7
           27   213     245.79  ORCD  ZSDT       67.0   83.0   93.1                   179.7                    110.5                156.1
           28   214    3391.21  FRST  GLH        61.7   79.0   91.0                   227.7                    107.3                214.9
           28   215     496.80  FRST  SSDT       54.5   73.0   87.5                   163.7                     92.0                155.7
           28   216     212.40  ORCD  GLH        67.0   83.0   93.1                   227.7                    107.3                214.9
           28   217     265.21  ORCD  SSDT       59.3   77.0   89.9                   163.7                     92.0                155.7
           29   218      51.57  RICE  SSDT       64.3   81.0   92.0                   163.7                     92.0                155.7
           29   219     100.98  RICE  ZSDT       68.4   84.0   93.5                   179.7                    110.5                156.1
           29   220      16.80  WWHT  LGH        54.5   73.0   87.5                   363.5                    253.4                454.7
           29   221      41.55  WWHT  SSDT       64.3   81.0   92.0                   163.7                     92.0                155.7
           29   222      28.58  WWHT  ZSDT       68.4   84.0   93.5                   179.7                    110.5                156.1
           29   223     527.63  FRST  LGH        40.5   60.0   78.5                   363.5                    253.4                454.7
           29   224     172.13  FRST  SSDT       54.5   73.0   87.5                   163.7                     92.0                155.7
           29   225     148.61  FRST  ZSDT       61.7   79.0   91.0                   179.7                    110.5                156.1
           29   226       9.33  BERM  LGH        55.5   73.8   88.0                   363.5                    253.4                454.7
           29   227       8.84  BERM  SSDT       65.5   81.9   92.5                   163.7                     92.0                155.7
           29   228      60.02  BERM  ZSDT       71.7   86.2   94.6                   179.7                    110.5                156.1
           30   229     184.52  RICE  GLH        68.4   84.0   93.5                   227.7                    107.3                214.9
           30   230     174.89  RICE  LGH        54.5   73.0   87.5                   363.5                    253.4                454.7
           30   231     115.58  RICE  SSDT       64.3   81.0   92.0                   163.7                     92.0                155.7
           30   232      71.48  RICE  ZSDT       68.4   84.0   93.5                   179.7                    110.5                156.1
           30   233      81.59  WWHT  GLH        68.4   84.0   93.5                   227.7                    107.3                214.9
           30   234      49.91  WWHT  LGH        54.5   73.0   87.5                   363.5                    253.4                454.7
           30   235     122.19  WWHT  SSDT       64.3   81.0   92.0                   163.7                     92.0                155.7
           30   236      41.08  WWHT  ZSDT       68.4   84.0   93.5                   179.7                    110.5                156.1
           30   237     967.05  FRST  GLH        61.7   79.0   91.0                   227.7                    107.3                214.9
           30   238    1518.92  FRST  LGH        40.5   60.0   78.5                   363.5                    253.4                454.7
           30   239     910.92  FRST  SSDT       54.5   73.0   87.5                   163.7                     92.0                155.7
           30   240     156.68  ORCD  GLH        67.0   83.0   93.1                   227.7                    107.3                214.9
           30   241     245.22  ORCD  LGH        46.8   66.0   83.0                   363.5                    253.4                454.7
           30   242     125.78  ORCD  SSDT       59.3   77.0   89.9                   163.7                     92.0                155.7
           30   243     181.59  BERM  GLH        71.7   86.2   94.6                   227.7                    107.3                214.9
           30   244      95.12  BERM  LGH        55.5   73.8   88.0                   363.5                    253.4                454.7
           30   245      64.10  BERM  SSDT       65.5   81.9   92.5                   163.7                     92.0                155.7
           31   246     242.03  RICE  CST        54.5   73.0   87.5                    62.1                     58.0                208.4
           31   247     485.22  RICE  GLH        68.4   84.0   93.5                   227.7                    107.3                214.9
           31   248     391.94  RICE  SSDT       64.3   81.0   92.0                   163.7                     92.0                155.7
           31   249     788.59  RICE  ZSDT       68.4   84.0   93.5                   179.7                    110.5                156.1
           31   250    2817.17  FRST  GLH        61.7   79.0   91.0                   227.7                    107.3                214.9
           31   251     989.74  FRST  LGH        40.5   60.0   78.5                   363.5                    253.4                454.7
           31   252     765.34  FRST  SSDT       54.5   73.0   87.5                   163.7                     92.0                155.7
           31   253     669.79  FRST  ZSDT       61.7   79.0   91.0                   179.7                    110.5                156.1
           31   254     225.66  BERM  GLH        71.7   86.2   94.6                   227.7                    107.3                214.9
           31   255     203.99  BERM  SSDT       65.5   81.9   92.5                   163.7                     92.0                155.7
           31   256     547.07  BERM  ZSDT       71.7   86.2   94.6                   179.7                    110.5                156.1
           32   257      17.99  RICE  GLH        68.4   84.0   93.5                   227.7                    107.3                214.9
           32   258      89.02  RICE  LGH        54.5   73.0   87.5                   363.5                    253.4                454.7
           32   259     278.12  FRST  GLH        61.7   79.0   91.0                   227.7                    107.3                214.9
           32   260     339.35  FRST  LGH        40.5   60.0   78.5                   363.5                    253.4                454.7
           32   261      61.03  ORCD  GLH        67.0   83.0   93.1                   227.7                    107.3                214.9
           32   262      35.12  ORCD  LGH        46.8   66.0   83.0                   363.5                    253.4                454.7
           33   263      63.78  RICE  LGH        54.5   73.0   87.5                   363.5                    253.4                454.7
           33   264     133.26  RICE  SSDT       64.3   81.0   92.0                   163.7                     92.0                155.7
           33   265      30.88  RICE  ZSDT       68.4   84.0   93.5                   179.7                    110.5                156.1
           33   266     568.53  FRST  GLH        61.7   79.0   91.0                   227.7                    107.3                214.9
           33   267     487.23  FRST  LGH        40.5   60.0   78.5                   363.5                    253.4                454.7
           33   268     318.70  FRST  ZSDT       61.7   79.0   91.0                   179.7                    110.5                156.1
           33   269     106.27  ORCD  GLH        67.0   83.0   93.1                   227.7                    107.3                214.9
           33   270      63.68  ORCD  LGH        46.8   66.0   83.0                   363.5                    253.4                454.7
           33   271      90.22  ORCD  SSDT       59.3   77.0   89.9                   163.7                     92.0                155.7
           33   272      33.60  BERM  GLH        71.7   86.2   94.6                   227.7                    107.3                214.9
           33   273      28.55  BERM  LGH        55.5   73.8   88.0                   363.5                    253.4                454.7
           33   274      55.34  BERM  SSDT       65.5   81.9   92.5                   163.7                     92.0                155.7
           34   275      56.69  RICE  GLH        68.4   84.0   93.5                   227.7                    107.3                214.9
           34   276      33.03  RICE  ZSDT       68.4   84.0   93.5                   179.7                    110.5                156.1
           34   277      42.22  WWHT  GLH        68.4   84.0   93.5                   227.7                    107.3                214.9
           34   278      72.27  WWHT  ZSDT       68.4   84.0   93.5                   179.7                    110.5                156.1
           34   279    1340.14  FRST  GLH        61.7   79.0   91.0                   227.7                    107.3                214.9
           34   280     174.24  FRST  ZSDT       61.7   79.0   91.0                   179.7                    110.5                156.1
           35   281      61.25  RICE  GLH        68.4   84.0   93.5                   227.7                    107.3                214.9
           35   282     152.78  RICE  LGH        54.5   73.0   87.5                   363.5                    253.4                454.7
           35   283      55.87  RICE  ZSDT       68.4   84.0   93.5                   179.7                    110.5                156.1
           35   284    1681.78  FRST  GLH        61.7   79.0   91.0                   227.7                    107.3                214.9
           35   285     540.42  FRST  LGH        40.5   60.0   78.5                   363.5                    253.4                454.7
           35   286     432.65  FRST  SSDT       54.5   73.0   87.5                   163.7                     92.0                155.7
           35   287     140.84  ORCD  CST        46.8   66.0   83.0                    62.1                     58.0                208.4
           35   288      34.95  ORCD  GLH        67.0   83.0   93.1                   227.7                    107.3                214.9
           35   289      54.91  ORCD  SSDT       59.3   77.0   89.9                   163.7                     92.0                155.7
           36   290    1502.55  FRST  GLH        61.7   79.0   91.0                   227.7                    107.3                214.9
           36   291     198.25  ORCD  GLH        67.0   83.0   93.1                   227.7                    107.3                214.9
           37   292     181.22  RICE  GLH        68.4   84.0   93.5                   227.7                    107.3                214.9
           37   293      61.75  RICE  SSDT       64.3   81.0   92.0                   163.7                     92.0                155.7
           37   294      61.08  RICE  ZSDT       68.4   84.0   93.5                   179.7                    110.5                156.1
           37   295    2914.70  FRST  GLH        61.7   79.0   91.0                   227.7                    107.3                214.9
           37   296     449.91  FRST  SSDT       54.5   73.0   87.5                   163.7                     92.0                155.7
           38   297     235.05  FRST  GLH        61.7   79.0   91.0                   227.7                    107.3                214.9
           38   298     429.26  FRST  QSH        54.5   73.0   87.5                   281.8                    112.8                217.0
           38   299      76.04  WATR  GLH        81.7   92.0   97.1                   227.7                    107.3                214.9
           38   300      34.40  WATR  QSH        81.7   92.0   97.1                   281.8                    112.8                217.0

         HRU Input Summary Table 2:
          Sub   HRU   Area(ha)         SoilName Hydgrp MaxRtDpth(mm) Albedo USLE_K USLE_P USLE_LS ProfileAWC(mm) IniSoilH2O(mm)
            1     1    1195.51 GLH                D          1000.00   0.10   0.10   1.00    8.65    107.300         99.053
            1     2     537.02 HHR                C           800.00   0.20   0.10   1.00    5.58    121.700        112.346
            1     3     115.08 GLH                D          1000.00   0.10   0.10   1.00    5.13    107.300         99.053
            2     4    2645.51 GLH                D          1000.00   0.10   0.10   1.00    6.60    107.300         99.053
            2     5     574.36 HHR                C           800.00   0.20   0.10   1.00    4.27    121.700        112.346
            3     6      25.32 GLH                D           900.00   0.10   0.10   1.00    2.75    107.300         99.053
            3     7     112.86 GLH                D          1000.00   0.10   0.10   1.00    5.68    107.300         99.053
            3     8       8.25 GLH                D          1000.00   0.10   0.10   1.00    0.78    107.300         99.053
            4     9    2238.50 GLH                D          1000.00   0.10   0.10   1.00    5.75    107.300         99.053
            4    10     350.46 HHR                C           800.00   0.20   0.10   1.00    3.73    121.700        112.346
            4    11     108.19 GLH                D          1000.00   0.10   0.10   1.00    2.56    107.300         99.053
            4    12      30.65 HHR                C           800.00   0.20   0.10   1.00    3.57    121.700        112.346
            4    13     103.00 ZSDT               D           800.00   0.10   0.01   1.00    2.21    110.500        102.007
            5    14    1153.65 GLH                D          1000.00   0.10   0.10   1.00    6.12    107.300         99.053
            5    15     133.48 GLH                D          1000.00   0.10   0.10   1.00    3.94    107.300         99.053
            5    16      76.12 GLH                D          1000.00   0.10   0.10   1.00    4.59    107.300         99.053
            6    17      88.64 GLH                D           900.00   0.10   0.10   1.00    4.59    107.300         97.906
            6    18      26.72 SSDT               C           800.00   0.10   0.01   1.00    3.46     92.000         83.945
            6    19    1198.40 GLH                D          1000.00   0.10   0.10   1.00    6.57    107.300         97.906
            6    20     530.89 SSDT               C           800.00   0.10   0.01   1.00    7.67     92.000         83.945
            7    21    5264.43 GLH                D          1000.00   0.10   0.10   1.00    6.72    107.300         99.053
            7    22     377.98 GLH                D          1000.00   0.10   0.10   1.00    5.58    107.300         99.053
            7    23      81.57 ZSDT               D           800.00   0.10   0.01   1.00    4.64    110.500        102.007
            8    24      38.48 GLH                D           900.00   0.10   0.10   1.00    3.20    107.300         97.906
            8    25      96.73 ZSDT               D           800.00   0.10   0.01   1.00    2.54    110.500        100.826
            8    26     218.27 GLH                D          1000.00   0.10   0.10   1.00    4.89    107.300         97.906
            8    27     146.80 ZSDT               D           800.00   0.10   0.01   1.00    3.03    110.500        100.826
            8    28      81.59 GLH                D          1000.00   0.10   0.10   1.00    3.03    107.300         97.906
            8    29      12.00 ZSDT               D           800.00   0.10   0.01   1.00    3.67    110.500        100.826
            8    30      11.61 GLH                D          1000.00   0.10   0.10   1.00    2.66    107.300         97.906
            8    31      61.36 ZSDT               D           800.00   0.10   0.01   1.00    0.31    110.500        100.826
            9    32      27.21 LGH                B           900.00   0.20   0.10   1.00    2.55    253.400        231.215
            9    33      21.45 ZSDT               D           800.00   0.10   0.01   1.00    0.91    110.500        100.826
            9    34     124.74 LGH                B          1500.00   0.20   0.10   1.00    3.32    253.400        231.215
            9    35      31.56 ZSDT               D           800.00   0.10   0.01   1.00    0.82    110.500        100.826
            9    36      13.32 LGH                B          1500.00   0.20   0.10   1.00    3.93    253.400        231.215
            9    37       8.41 LGH                B          1500.00   0.20   0.10   1.00    0.93    253.400        231.215
            9    38      18.71 ZSDT               D           800.00   0.10   0.01   1.00    0.16    110.500        100.826
           10    39      86.79 GLH                D           900.00   0.10   0.10   1.00    4.39    107.300         97.906
           10    40      46.90 SSDT               C           800.00   0.10   0.01   1.00    2.18     92.000         83.945
           10    41      44.91 SZT                B            90.00   0.20   0.10   1.00    2.59      6.300          5.748
           10    42      32.87 ZSDT               D           800.00   0.10   0.01   1.00    1.64    110.500        100.826
           10    43     645.96 GLH                D          1000.00   0.10   0.10   1.00    7.34    107.300         97.906
           10    44     365.80 HRXT               B           600.00   0.20   0.10   1.00   11.64    136.200        124.276
           10    45     276.73 SSDT               C           800.00   0.10   0.01   1.00    5.51     92.000         83.945
           10    46     173.71 SZT                B            90.00   0.20   0.10   1.00    3.75      6.300          5.748
           10    47      28.38 GLH                D          1000.00   0.10   0.10   1.00    5.97    107.300         97.906
           10    48      17.89 HRXT               B           600.00   0.20   0.10   1.00    7.44    136.200        124.276
           10    49      28.08 SSDT               C           800.00   0.10   0.01   1.00    2.40     92.000         83.945
           10    50      20.79 SZT                B            90.00   0.20   0.10   1.00    2.52      6.300          5.748
           11    51      97.75 SSDT               C           800.00   0.10   0.01   1.00    0.98     92.000         83.945
[...]
           22   171      17.71        31.000         0.048      0.000   0.020        1.000  0.050    0.000     0.000
           22   172     152.63        31.000         0.048      0.000   0.020        1.000  0.050    0.000     0.000
           22   173      53.29        31.000         0.048      0.000   0.020        1.000  0.050    0.000     0.000
           23   174    2524.67        31.000         0.048      0.000   0.020        1.000  0.050    0.000     0.000
           23   175     181.96        31.000         0.048      0.000   0.020        1.000  0.050    0.000     0.000
           23   176     105.28        31.000         0.048      0.000   0.020        1.000  0.050    0.000     0.000
           24   177      35.80        31.000         0.048      0.000   0.020        1.000  0.050    0.000     0.000
           24   178     120.51        31.000         0.048      0.000   0.020        1.000  0.050    0.000     0.000
           24   179     449.22        31.000         0.048      0.000   0.020        1.000  0.050    0.000     0.000
           24   180     241.18        31.000         0.048      0.000   0.020        1.000  0.050    0.000     0.000
           24   181     739.47        31.000         0.048      0.000   0.020        1.000  0.050    0.000     0.000
           24   182     565.60        31.000         0.048      0.000   0.020        1.000  0.050    0.000     0.000
           24   183      24.33        31.000         0.048      0.000   0.020        1.000  0.050    0.000     0.000
           24   184      88.02        31.000         0.048      0.000   0.020        1.000  0.050    0.000     0.000
           24   185      39.07        31.000         0.048      0.000   0.020        1.000  0.050    0.000     0.000
           24   186      37.35        31.000         0.048      0.000   0.020        1.000  0.050    0.000     0.000
           25   187     121.82        31.000         0.048      0.000   0.020        1.000  0.050    0.000     0.000
           25   188      28.38        31.000         0.048      0.000   0.020        1.000  0.050    0.000     0.000
           25   189      30.53        31.000         0.048      0.000   0.020        1.000  0.050    0.000     0.000
           25   190      83.92        31.000         0.048      0.000   0.020        1.000  0.050    0.000     0.000
           25   191      26.42        31.000         0.048      0.000   0.020        1.000  0.050    0.000     0.000
           25   192     151.51        31.000         0.048      0.000   0.020        1.000  0.050    0.000     0.000
           25   193     580.92        31.000         0.048      0.000   0.020        1.000  0.050    0.000     0.000
           25   194     455.36        31.000         0.048      0.000   0.020        1.000  0.050    0.000     0.000
           25   195     158.98        31.000         0.048      0.000   0.020        1.000  0.050    0.000     0.000
           25   196      48.96        31.000         0.048      0.000   0.020        1.000  0.050    0.000     0.000
           25   197      34.04        31.000         0.048      0.000   0.020        1.000  0.050    0.000     0.000
           25   198      74.12        31.000         0.048      0.000   0.020        1.000  0.050    0.000     0.000
           25   199     129.31        31.000         0.048      0.000   0.020        1.000  0.050    0.000     0.000
           25   200     125.91        31.000         0.048      0.000   0.020        1.000  0.050    0.000     0.000
           26   201     970.18        31.000         0.048      0.000   0.020        1.000  0.050    0.000     0.000
           26   202     421.70        31.000         0.048      0.000   0.020        1.000  0.050    0.000     0.000
           26   203     327.22        31.000         0.048      0.000   0.020        1.000  0.050    0.000     0.000
           26   204      81.50        31.000         0.048      0.000   0.020        1.000  0.050    0.000     0.000
           27   205      96.50        31.000         0.048      0.000   0.020        1.000  0.050    0.000     0.000
           27   206      51.32        31.000         0.048      0.000   0.020        1.000  0.050    0.000     0.000
           27   207      73.46        31.000         0.048      0.000   0.020        1.000  0.050    0.000     0.000
           27   208      83.72        31.000         0.048      0.000   0.020        1.000  0.050    0.000     0.000
           27   209    3103.76        31.000         0.048      0.000   0.020        1.000  0.050    0.000     0.000
           27   210     988.50        31.000         0.048      0.000   0.020        1.000  0.050    0.000     0.000
           27   211     310.66        31.000         0.048      0.000   0.020        1.000  0.050    0.000     0.000
           27   212     324.33        31.000         0.048      0.000   0.020        1.000  0.050    0.000     0.000
           27   213     245.79        31.000         0.048      0.000   0.020        1.000  0.050    0.000     0.000
           28   214    3391.21        31.000         0.048      0.000   0.020        1.000  0.050    0.000     0.000
           28   215     496.80        31.000         0.048      0.000   0.020        1.000  0.050    0.000     0.000
           28   216     212.40        31.000         0.048      0.000   0.020        1.000  0.050    0.000     0.000
           28   217     265.21        31.000         0.048      0.000   0.020        1.000  0.050    0.000     0.000
           29   218      51.57        31.000         0.048      0.000   0.020        1.000  0.050    0.000     0.000
           29   219     100.98        31.000         0.048      0.000   0.020        1.000  0.050    0.000     0.000
           29   220      16.80        31.000         0.048      0.000   0.020        1.000  0.050    0.000     0.000
           29   221      41.55        31.000         0.048      0.000   0.020        1.000  0.050    0.000     0.000
           29   222      28.58        31.000         0.048      0.000   0.020        1.000  0.050    0.000     0.000
           29   223     527.63        31.000         0.048      0.000   0.020        1.000  0.050    0.000     0.000
           29   224     172.13        31.000         0.048      0.000   0.020        1.000  0.050    0.000     0.000
           29   225     148.61        31.000         0.048      0.000   0.020        1.000  0.050    0.000     0.000
           29   226       9.33        31.000         0.048      0.000   0.020        1.000  0.050    0.000     0.000
           29   227       8.84        31.000         0.048      0.000   0.020        1.000  0.050    0.000     0.000
           29   228      60.02        31.000         0.048      0.000   0.020        1.000  0.050    0.000     0.000
           30   229     184.52        31.000         0.048      0.000   0.020        1.000  0.050    0.000     0.000
           30   230     174.89        31.000         0.048      0.000   0.020        1.000  0.050    0.000     0.000
           30   231     115.58        31.000         0.048      0.000   0.020        1.000  0.050    0.000     0.000
           30   232      71.48        31.000         0.048      0.000   0.020        1.000  0.050    0.000     0.000
           30   233      81.59        31.000         0.048      0.000   0.020        1.000  0.050    0.000     0.000
           30   234      49.91        31.000         0.048      0.000   0.020        1.000  0.050    0.000     0.000
           30   235     122.19        31.000         0.048      0.000   0.020        1.000  0.050    0.000     0.000
           30   236      41.08        31.000         0.048      0.000   0.020        1.000  0.050    0.000     0.000
           30   237     967.05        31.000         0.048      0.000   0.020        1.000  0.050    0.000     0.000
           30   238    1518.92        31.000         0.048      0.000   0.020        1.000  0.050    0.000     0.000
           30   239     910.92        31.000         0.048      0.000   0.020        1.000  0.050    0.000     0.000
           30   240     156.68        31.000         0.048      0.000   0.020        1.000  0.050    0.000     0.000
           30   241     245.22        31.000         0.048      0.000   0.020        1.000  0.050    0.000     0.000
           30   242     125.78        31.000         0.048      0.000   0.020        1.000  0.050    0.000     0.000
           30   243     181.59        31.000         0.048      0.000   0.020        1.000  0.050    0.000     0.000
           30   244      95.12        31.000         0.048      0.000   0.020        1.000  0.050    0.000     0.000
           30   245      64.10        31.000         0.048      0.000   0.020        1.000  0.050    0.000     0.000
           31   246     242.03        31.000         0.048      0.000   0.020        1.000  0.050    0.000     0.000
           31   247     485.22        31.000         0.048      0.000   0.020        1.000  0.050    0.000     0.000
           31   248     391.94        31.000         0.048      0.000   0.020        1.000  0.050    0.000     0.000
           31   249     788.59        31.000         0.048      0.000   0.020        1.000  0.050    0.000     0.000
           31   250    2817.17        31.000         0.048      0.000   0.020        1.000  0.050    0.000     0.000
           31   251     989.74        31.000         0.048      0.000   0.020        1.000  0.050    0.000     0.000
           31   252     765.34        31.000         0.048      0.000   0.020        1.000  0.050    0.000     0.000
           31   253     669.79        31.000         0.048      0.000   0.020        1.000  0.050    0.000     0.000
           31   254     225.66        31.000         0.048      0.000   0.020        1.000  0.050    0.000     0.000
           31   255     203.99        31.000         0.048      0.000   0.020        1.000  0.050    0.000     0.000
           31   256     547.07        31.000         0.048      0.000   0.020        1.000  0.050    0.000     0.000
           32   257      17.99        31.000         0.048      0.000   0.020        1.000  0.050    0.000     0.000
           32   258      89.02        31.000         0.048      0.000   0.020        1.000  0.050    0.000     0.000
           32   259     278.12        31.000         0.048      0.000   0.020        1.000  0.050    0.000     0.000
           32   260     339.35        31.000         0.048      0.000   0.020        1.000  0.050    0.000     0.000
           32   261      61.03        31.000         0.048      0.000   0.020        1.000  0.050    0.000     0.000
           32   262      35.12        31.000         0.048      0.000   0.020        1.000  0.050    0.000     0.000
           33   263      63.78        31.000         0.048      0.000   0.020        1.000  0.050    0.000     0.000
           33   264     133.26        31.000         0.048      0.000   0.020        1.000  0.050    0.000     0.000
           33   265      30.88        31.000         0.048      0.000   0.020        1.000  0.050    0.000     0.000
           33   266     568.53        31.000         0.048      0.000   0.020        1.000  0.050    0.000     0.000
           33   267     487.23        31.000         0.048      0.000   0.020        1.000  0.050    0.000     0.000
           33   268     318.70        31.000         0.048      0.000   0.020        1.000  0.050    0.000     0.000
           33   269     106.27        31.000         0.048      0.000   0.020        1.000  0.050    0.000     0.000
           33   270      63.68        31.000         0.048      0.000   0.020        1.000  0.050    0.000     0.000
           33   271      90.22        31.000         0.048      0.000   0.020        1.000  0.050    0.000     0.000
           33   272      33.60        31.000         0.048      0.000   0.020        1.000  0.050    0.000     0.000
           33   273      28.55        31.000         0.048      0.000   0.020        1.000  0.050    0.000     0.000
           33   274      55.34        31.000         0.048      0.000   0.020        1.000  0.050    0.000     0.000
           34   275      56.69        31.000         0.048      0.000   0.020        1.000  0.050    0.000     0.000
           34   276      33.03        31.000         0.048      0.000   0.020        1.000  0.050    0.000     0.000
           34   277      42.22        31.000         0.048      0.000   0.020        1.000  0.050    0.000     0.000
           34   278      72.27        31.000         0.048      0.000   0.020        1.000  0.050    0.000     0.000
           34   279    1340.14        31.000         0.048      0.000   0.020        1.000  0.050    0.000     0.000
           34   280     174.24        31.000         0.048      0.000   0.020        1.000  0.050    0.000     0.000
           35   281      61.25        31.000         0.048      0.000   0.020        1.000  0.050    0.000     0.000
           35   282     152.78        31.000         0.048      0.000   0.020        1.000  0.050    0.000     0.000
           35   283      55.87        31.000         0.048      0.000   0.020        1.000  0.050    0.000     0.000
           35   284    1681.78        31.000         0.048      0.000   0.020        1.000  0.050    0.000     0.000
           35   285     540.42        31.000         0.048      0.000   0.020        1.000  0.050    0.000     0.000
           35   286     432.65        31.000         0.048      0.000   0.020        1.000  0.050    0.000     0.000
           35   287     140.84        31.000         0.048      0.000   0.020        1.000  0.050    0.000     0.000
           35   288      34.95        31.000         0.048      0.000   0.020        1.000  0.050    0.000     0.000
           35   289      54.91        31.000         0.048      0.000   0.020        1.000  0.050    0.000     0.000
           36   290    1502.55        31.000         0.048      0.000   0.020        1.000  0.050    0.000     0.000
           36   291     198.25        31.000         0.048      0.000   0.020        1.000  0.050    0.000     0.000
           37   292     181.22        31.000         0.048      0.000   0.020        1.000  0.050    0.000     0.000
           37   293      61.75        31.000         0.048      0.000   0.020        1.000  0.050    0.000     0.000
           37   294      61.08        31.000         0.048      0.000   0.020        1.000  0.050    0.000     0.000
           37   295    2914.70        31.000         0.048      0.000   0.020        1.000  0.050    0.000     0.000
           37   296     449.91        31.000         0.048      0.000   0.020        1.000  0.050    0.000     0.000
           38   297     235.05        31.000         0.048      0.000   0.020        1.000  0.050    0.000     0.000
           38   298     429.26        31.000         0.048      0.000   0.020        1.000  0.050    0.000     0.000
           38   299      76.04        31.000         0.048      0.000   0.020        1.000  0.050    0.000     0.000
           38   300      34.40        31.000         0.048      0.000   0.020        1.000  0.050    0.000     0.000

         Tributary/Main Channel Characteristics
              |--------------Tributary--------------------|---------------------Main---------------------------|
          Sub  Length(km) Slope Width(m) Cond(mm/hr)     N Length(km) Slope Width(m) Depth(m) Cond(mm/hr)     N
            1        8.53 0.102     7.34      0.5000 0.014       1.22 0.016     7.34     0.41      0.0000 0.014
            2       13.35 0.046    10.26      0.5000 0.014       3.23 0.006    10.26     0.52      0.0000 0.014
            3        1.85 0.192     1.60      0.5000 0.014       0.93 0.001    13.69     0.63      0.0000 0.014
            4       14.78 0.040     9.51      0.5000 0.014       6.04 0.032     9.51     0.49      0.0000 0.014
            5        9.63 0.037     6.10      0.5000 0.014       7.03 0.009    19.51     0.80      0.0000 0.014
            6        7.96 0.093     7.36      0.5000 0.014       1.00 0.003     7.36     0.41      0.0000 0.014
            7       22.05 0.021    14.46      0.5000 0.014      12.96 0.009    14.46     0.65      0.0000 0.014
            8        6.54 0.070     3.97      0.5000 0.014       3.90 0.004    22.49     0.87      0.0000 0.014
            9        2.93 0.087     2.18      0.5000 0.014       0.53 0.001    28.68     1.03      0.0000 0.014
           10        9.66 0.060     7.15      0.5000 0.014       2.24 0.001     7.15     0.41      0.0000 0.014
           11       17.81 0.038     9.89      0.5000 0.014       8.12 0.042     9.89     0.50      0.0000 0.014
           12        8.91 0.049     8.07      0.5000 0.014       2.11 0.028     8.07     0.44      0.0000 0.014
           13       17.91 0.059    16.32      0.5000 0.014      10.25 0.027    16.32     0.71      0.0000 0.014
           14       17.16 0.052    13.65      0.5000 0.014       9.76 0.038    13.65     0.63      0.0000 0.014
           15        5.38 0.078     4.51      0.5000 0.014       4.67 0.013    14.91     0.66      0.0000 0.014
           16        7.82 0.083     7.06      0.5000 0.014       4.09 0.005    31.92     1.10      0.0000 0.014
           17       11.38 0.047    11.00      0.5000 0.014       4.34 0.023    11.00     0.54      0.0000 0.014
           18        9.68 0.079     8.99      0.5000 0.014       3.82 0.021     8.99     0.47      0.0000 0.014
           19       13.95 0.061    11.06      0.5000 0.014       7.12 0.033    11.06     0.54      0.0000 0.014
           20       12.29 0.054    10.68      0.5000 0.014       6.45 0.003    26.45     0.97      0.0000 0.014
           21        6.57 0.097     4.57      0.5000 0.014       4.20 0.005    16.40     0.71      0.0000 0.014
           22        5.48 0.120     5.64      0.5000 0.014       2.92 0.007    46.59     1.42      0.0000 0.014
           23       11.46 0.066     9.46      0.5000 0.014       6.07 0.026     9.46     0.49      0.0000 0.014
           24       10.64 0.072     8.47      0.5000 0.014       3.80 0.039     8.47     0.46      0.0000 0.014
           25        8.18 0.064     7.79      0.5000 0.014       4.50 0.009    31.86     1.10      0.0000 0.014
           26        6.89 0.081     7.26      0.5000 0.014       1.62 0.017     7.26     0.41      0.0000 0.014
           27       18.62 0.038    13.74      0.5000 0.014      14.53 0.004    41.14     1.31      0.0000 0.014
           28       14.38 0.042    12.26      0.5000 0.014       9.34 0.012    18.95     0.78      0.0000 0.014
           29        7.08 0.120     5.58      0.5000 0.014       3.50 0.000    34.92     1.17      0.0000 0.014
           30       14.29 0.048    13.49      0.5000 0.014      10.96 0.005    40.60     1.30      0.0000 0.014
           31       19.34 0.029    17.83      0.5000 0.014      13.40 0.001    52.03     1.53      0.0000 0.014
           32        6.07 0.092     4.50      0.5000 0.014       4.37 0.005    48.15     1.45      0.0000 0.014
           33       11.15 0.039     7.72      0.5000 0.014       2.51 0.024     7.72     0.43      0.0000 0.014
           34        8.57 0.109     7.01      0.5000 0.014       2.00 0.023     7.01     0.40      0.0000 0.014
           35       12.68 0.079    10.45      0.5000 0.014       9.07 0.002    77.62     2.00      0.0000 0.014
           36       11.62 0.053     8.28      0.5000 0.014       8.23 0.002    79.57     2.03      0.0000 0.014
           37       11.21 0.071    12.28      0.5000 0.014       4.55 0.009    12.28     0.58      0.0000 0.014
           38        5.79 0.070     6.02      0.5000 0.014       4.33 0.001    82.30     2.08      0.0000 0.014
