1
    SWAT Jun 01 2011    VER 2009/Rev. 481                                                                0/ 0/   0      0: 0: 0

    General Input/Output section (file.cio):                                        
    2022/4/11 0:00:00 ARCGIS-SWAT interface AV                                      
                                                                                    
         Number of years in run:   25
         Area of watershed:     1018.672 km2
1
    SWAT Jun 01 2011    VER 2009/Rev. 481                                           

    General Input/Output section (file.cio):                                        
    2022/4/11 0:00:00 ARCGIS-SWAT interface AV                                      
                                                                                    
Annual Summary for Watershed in year    1 of simulation

 UNIT                              PERCO   TILE                       WATER    SED    NO3    NO3    NO3    NO3        N       P       P
 TIME   PREC   SURQ   LATQ    GWQ   LATE      Q    SW     ET     PET  YIELD  YIELD   SURQ   LATQ   PERC   CROP  ORGANIC SOLUBLE ORGANIC
        (mm)   (mm)   (mm)   (mm)   (mm)   (mm)   (mm)   (mm)   (mm)   (mm) (t/ha)  -----------------(kg nutrient/ha)------------------

 19942067.12 794.02 165.34 344.98 382.37   0.00 104.93 733.371007.031301.13  49.85   2.44   3.77  65.63  29.56    37.66    0.08    4.63
1
    SWAT Jun 01 2011    VER 2009/Rev. 481                                           

    General Input/Output section (file.cio):                                        
    2022/4/11 0:00:00 ARCGIS-SWAT interface AV                                      
                                                                                    
Annual Summary for Watershed in year    2 of simulation

 UNIT                              PERCO   TILE                       WATER    SED    NO3    NO3    NO3    NO3        N       P       P
 TIME   PREC   SURQ   LATQ    GWQ   LATE      Q    SW     ET     PET  YIELD  YIELD   SURQ   LATQ   PERC   CROP  ORGANIC SOLUBLE ORGANIC
        (mm)   (mm)   (mm)   (mm)   (mm)   (mm)   (mm)   (mm)   (mm)   (mm) (t/ha)  -----------------(kg nutrient/ha)------------------

 19951441.59 458.20 140.49 302.51 327.12   0.00  74.14 549.591010.36 898.53   2.98   1.36   1.82  29.43  29.29     3.02    0.04    0.39
1
    SWAT Jun 01 2011    VER 2009/Rev. 481                                           

    General Input/Output section (file.cio):                                        
    2022/4/11 0:00:00 ARCGIS-SWAT interface AV                                      
                                                                                    
Annual Summary for Watershed in year    3 of simulation

 UNIT                              PERCO   TILE                       WATER    SED    NO3    NO3    NO3    NO3        N       P       P
 TIME   PREC   SURQ   LATQ    GWQ   LATE      Q    SW     ET     PET  YIELD  YIELD   SURQ   LATQ   PERC   CROP  ORGANIC SOLUBLE ORGANIC
        (mm)   (mm)   (mm)   (mm)   (mm)   (mm)   (mm)   (mm)   (mm)   (mm) (t/ha)  -----------------(kg nutrient/ha)------------------

 19961846.07 746.17 158.36 343.61 376.07   0.00  46.85 591.801023.841244.94   5.18   2.36   1.56  26.24  30.49     4.78    0.09    0.64
1
    SWAT Jun 01 2011    VER 2009/Rev. 481                                           

    General Input/Output section (file.cio):                                        
    2022/4/11 0:00:00 ARCGIS-SWAT interface AV                                      
                                                                                    
Annual Summary for Watershed in year    4 of simulation

 UNIT                              PERCO   TILE                       WATER    SED    NO3    NO3    NO3    NO3        N       P       P
 TIME   PREC   SURQ   LATQ    GWQ   LATE      Q    SW     ET     PET  YIELD  YIELD   SURQ   LATQ   PERC   CROP  ORGANIC SOLUBLE ORGANIC
        (mm)   (mm)   (mm)   (mm)   (mm)   (mm)   (mm)   (mm)   (mm)   (mm) (t/ha)  -----------------(kg nutrient/ha)------------------

 19972299.57 936.57 220.67 501.13 561.10   0.00 122.43 501.90 933.441654.36   6.53   2.89   2.23  35.01  26.82     5.05    0.13    0.68
1
    SWAT Jun 01 2011    VER 2009/Rev. 481                                           

    General Input/Output section (file.cio):                                        
    2022/4/11 0:00:00 ARCGIS-SWAT interface AV                                      
                                                                                    
Annual Summary for Watershed in year    5 of simulation

 UNIT                              PERCO   TILE                       WATER    SED    NO3    NO3    NO3    NO3        N       P       P
 TIME   PREC   SURQ   LATQ    GWQ   LATE      Q    SW     ET     PET  YIELD  YIELD   SURQ   LATQ   PERC   CROP  ORGANIC SOLUBLE ORGANIC
        (mm)   (mm)   (mm)   (mm)   (mm)   (mm)   (mm)   (mm)   (mm)   (mm) (t/ha)  -----------------(kg nutrient/ha)------------------

 19981966.76 722.46 188.62 430.46 447.81   0.00 102.58 627.611046.971337.07   5.36   2.21   2.04  35.04  22.59     4.08    0.13    0.58
1
    SWAT Jun 01 2011    VER 2009/Rev. 481                                           

    General Input/Output section (file.cio):                                        
    2022/4/11 0:00:00 ARCGIS-SWAT interface AV                                      
                                                                                    
Annual Summary for Watershed in year    6 of simulation

 UNIT                              PERCO   TILE                       WATER    SED    NO3    NO3    NO3    NO3        N       P       P
 TIME   PREC   SURQ   LATQ    GWQ   LATE      Q    SW     ET     PET  YIELD  YIELD   SURQ   LATQ   PERC   CROP  ORGANIC SOLUBLE ORGANIC
        (mm)   (mm)   (mm)   (mm)   (mm)   (mm)   (mm)   (mm)   (mm)   (mm) (t/ha)  -----------------(kg nutrient/ha)------------------

 19991591.52 546.90 159.40 359.48 395.38   0.00  97.69 494.551060.861062.63   3.30   1.74   1.69  29.67  24.82     3.63    0.11    0.50
1
    SWAT Jun 01 2011    VER 2009/Rev. 481                                           

    General Input/Output section (file.cio):                                        
    2022/4/11 0:00:00 ARCGIS-SWAT interface AV                                      
                                                                                    
Annual Summary for Watershed in year    7 of simulation

 UNIT                              PERCO   TILE                       WATER    SED    NO3    NO3    NO3    NO3        N       P       P
 TIME   PREC   SURQ   LATQ    GWQ   LATE      Q    SW     ET     PET  YIELD  YIELD   SURQ   LATQ   PERC   CROP  ORGANIC SOLUBLE ORGANIC
        (mm)   (mm)   (mm)   (mm)   (mm)   (mm)   (mm)   (mm)   (mm)   (mm) (t/ha)  -----------------(kg nutrient/ha)------------------

 20002211.24 932.55 200.20 446.21 501.11   0.00 122.12 549.461026.301575.34   4.70   3.07   2.08  33.87  24.57     5.72    0.19    0.78
1
    SWAT Jun 01 2011    VER 2009/Rev. 481                                           

    General Input/Output section (file.cio):                                        
    2022/4/11 0:00:00 ARCGIS-SWAT interface AV                                      
                                                                                    
Annual Summary for Watershed in year    8 of simulation

 UNIT                              PERCO   TILE                       WATER    SED    NO3    NO3    NO3    NO3        N       P       P
 TIME   PREC   SURQ   LATQ    GWQ   LATE      Q    SW     ET     PET  YIELD  YIELD   SURQ   LATQ   PERC   CROP  ORGANIC SOLUBLE ORGANIC
        (mm)   (mm)   (mm)   (mm)   (mm)   (mm)   (mm)   (mm)   (mm)   (mm) (t/ha)  -----------------(kg nutrient/ha)------------------

 20011717.48 616.11 167.83 402.39 419.53   0.00  57.86 579.041011.181183.11   3.89   2.01   1.55  25.03  23.07     3.89    0.14    0.54
1
    SWAT Jun 01 2011    VER 2009/Rev. 481                                           

    General Input/Output section (file.cio):                                        
    2022/4/11 0:00:00 ARCGIS-SWAT interface AV                                      
                                                                                    
Annual Summary for Watershed in year    9 of simulation

 UNIT                              PERCO   TILE                       WATER    SED    NO3    NO3    NO3    NO3        N       P       P
 TIME   PREC   SURQ   LATQ    GWQ   LATE      Q    SW     ET     PET  YIELD  YIELD   SURQ   LATQ   PERC   CROP  ORGANIC SOLUBLE ORGANIC
        (mm)   (mm)   (mm)   (mm)   (mm)   (mm)   (mm)   (mm)   (mm)   (mm) (t/ha)  -----------------(kg nutrient/ha)------------------

 20021746.46 588.78 151.65 273.89 328.80   0.00 128.01 603.061013.961011.45   3.23   1.99   2.14  31.51  24.61     3.74    0.14    0.52
1
    SWAT Jun 01 2011    VER 2009/Rev. 481                                           

    General Input/Output section (file.cio):                                        
    2022/4/11 0:00:00 ARCGIS-SWAT interface AV                                      
                                                                                    
Annual Summary for Watershed in year   10 of simulation

 UNIT                              PERCO   TILE                       WATER    SED    NO3    NO3    NO3    NO3        N       P       P
 TIME   PREC   SURQ   LATQ    GWQ   LATE      Q    SW     ET     PET  YIELD  YIELD   SURQ   LATQ   PERC   CROP  ORGANIC SOLUBLE ORGANIC
        (mm)   (mm)   (mm)   (mm)   (mm)   (mm)   (mm)   (mm)   (mm)   (mm) (t/ha)  -----------------(kg nutrient/ha)------------------

 20031385.70 506.98 123.53 260.71 264.24   0.00  90.67 531.031117.00 889.03   2.94   1.77   1.79  25.38  24.18     3.32    0.13    0.47
1
    SWAT Jun 01 2011    VER 2009/Rev. 481                                           

    General Input/Output section (file.cio):                                        
    2022/4/11 0:00:00 ARCGIS-SWAT interface AV                                      
                                                                                    
Annual Summary for Watershed in year   11 of simulation

 UNIT                              PERCO   TILE                       WATER    SED    NO3    NO3    NO3    NO3        N       P       P
 TIME   PREC   SURQ   LATQ    GWQ   LATE      Q    SW     ET     PET  YIELD  YIELD   SURQ   LATQ   PERC   CROP  ORGANIC SOLUBLE ORGANIC
        (mm)   (mm)   (mm)   (mm)   (mm)   (mm)   (mm)   (mm)   (mm)   (mm) (t/ha)  -----------------(kg nutrient/ha)------------------

 20041362.11 382.12 131.58 267.30 296.52   0.00  70.89 571.161066.95 778.24   2.51   1.27   1.48  23.81  26.29     2.67    0.11    0.37
1
    SWAT Jun 01 2011    VER 2009/Rev. 481                                           

    General Input/Output section (file.cio):                                        
    2022/4/11 0:00:00 ARCGIS-SWAT interface AV                                      
                                                                                    
Annual Summary for Watershed in year   12 of simulation

 UNIT                              PERCO   TILE                       WATER    SED    NO3    NO3    NO3    NO3        N       P       P
 TIME   PREC   SURQ   LATQ    GWQ   LATE      Q    SW     ET     PET  YIELD  YIELD   SURQ   LATQ   PERC   CROP  ORGANIC SOLUBLE ORGANIC
        (mm)   (mm)   (mm)   (mm)   (mm)   (mm)   (mm)   (mm)   (mm)   (mm) (t/ha)  -----------------(kg nutrient/ha)------------------

 20051844.96 760.53 163.44 361.57 395.53   0.00 100.76 494.311046.471282.13   5.07   2.46   2.03  36.22  22.66     5.74    0.22    0.80
1
    SWAT Jun 01 2011    VER 2009/Rev. 481                                           

    General Input/Output section (file.cio):                                        
    2022/4/11 0:00:00 ARCGIS-SWAT interface AV                                      
                                                                                    
Annual Summary for Watershed in year   13 of simulation

 UNIT                              PERCO   TILE                       WATER    SED    NO3    NO3    NO3    NO3        N       P       P
 TIME   PREC   SURQ   LATQ    GWQ   LATE      Q    SW     ET     PET  YIELD  YIELD   SURQ   LATQ   PERC   CROP  ORGANIC SOLUBLE ORGANIC
        (mm)   (mm)   (mm)   (mm)   (mm)   (mm)   (mm)   (mm)   (mm)   (mm) (t/ha)  -----------------(kg nutrient/ha)------------------

 20062275.86 955.37 206.75 462.76 511.65   0.00 108.62 590.921048.631620.66   6.72   3.27   1.98  31.97  23.88     6.00    0.26    0.81
1
    SWAT Jun 01 2011    VER 2009/Rev. 481                                           

    General Input/Output section (file.cio):                                        
    2022/4/11 0:00:00 ARCGIS-SWAT interface AV                                      
                                                                                    
Annual Summary for Watershed in year   14 of simulation

 UNIT                              PERCO   TILE                       WATER    SED    NO3    NO3    NO3    NO3        N       P       P
 TIME   PREC   SURQ   LATQ    GWQ   LATE      Q    SW     ET     PET  YIELD  YIELD   SURQ   LATQ   PERC   CROP  ORGANIC SOLUBLE ORGANIC
        (mm)   (mm)   (mm)   (mm)   (mm)   (mm)   (mm)   (mm)   (mm)   (mm) (t/ha)  -----------------(kg nutrient/ha)------------------

 20071768.17 702.26 160.26 371.48 392.71   0.00  54.53 567.591035.891230.68   4.51   2.48   1.51  25.60  23.09     4.56    0.19    0.63
1
    SWAT Jun 01 2011    VER 2009/Rev. 481                                           

    General Input/Output section (file.cio):                                        
    2022/4/11 0:00:00 ARCGIS-SWAT interface AV                                      
                                                                                    
Annual Summary for Watershed in year   15 of simulation

 UNIT                              PERCO   TILE                       WATER    SED    NO3    NO3    NO3    NO3        N       P       P
 TIME   PREC   SURQ   LATQ    GWQ   LATE      Q    SW     ET     PET  YIELD  YIELD   SURQ   LATQ   PERC   CROP  ORGANIC SOLUBLE ORGANIC
        (mm)   (mm)   (mm)   (mm)   (mm)   (mm)   (mm)   (mm)   (mm)   (mm) (t/ha)  -----------------(kg nutrient/ha)------------------

 20081568.32 496.18 155.35 328.81 363.13   0.00 102.64 505.061071.22 977.33   3.26   1.52   1.75  29.82  21.03     3.17    0.14    0.44
1
    SWAT Jun 01 2011    VER 2009/Rev. 481                                           

    General Input/Output section (file.cio):                                        
    2022/4/11 0:00:00 ARCGIS-SWAT interface AV                                      
                                                                                    
Annual Summary for Watershed in year   16 of simulation

 UNIT                              PERCO   TILE                       WATER    SED    NO3    NO3    NO3    NO3        N       P       P
 TIME   PREC   SURQ   LATQ    GWQ   LATE      Q    SW     ET     PET  YIELD  YIELD   SURQ   LATQ   PERC   CROP  ORGANIC SOLUBLE ORGANIC
        (mm)   (mm)   (mm)   (mm)   (mm)   (mm)   (mm)   (mm)   (mm)   (mm) (t/ha)  -----------------(kg nutrient/ha)------------------

 20091258.28 345.53 117.01 227.26 258.90   0.00 117.79 520.541089.87 687.64   2.36   1.06   1.23  17.03  23.65     2.54    0.10    0.35
1
    SWAT Jun 01 2011    VER 2009/Rev. 481                                           

    General Input/Output section (file.cio):                                        
    2022/4/11 0:00:00 ARCGIS-SWAT interface AV                                      
                                                                                    
Annual Summary for Watershed in year   17 of simulation

 UNIT                              PERCO   TILE                       WATER    SED    NO3    NO3    NO3    NO3        N       P       P
 TIME   PREC   SURQ   LATQ    GWQ   LATE      Q    SW     ET     PET  YIELD  YIELD   SURQ   LATQ   PERC   CROP  ORGANIC SOLUBLE ORGANIC
        (mm)   (mm)   (mm)   (mm)   (mm)   (mm)   (mm)   (mm)   (mm)   (mm) (t/ha)  -----------------(kg nutrient/ha)------------------

 20102126.83 770.36 221.24 516.64 557.84   0.00 104.30 590.52 997.251504.15   5.11   2.31   1.90  32.81  24.23     5.04    0.22    0.71
1
    SWAT Jun 01 2011    VER 2009/Rev. 481                                           

    General Input/Output section (file.cio):                                        
    2022/4/11 0:00:00 ARCGIS-SWAT interface AV                                      
                                                                                    
Annual Summary for Watershed in year   18 of simulation

 UNIT                              PERCO   TILE                       WATER    SED    NO3    NO3    NO3    NO3        N       P       P
 TIME   PREC   SURQ   LATQ    GWQ   LATE      Q    SW     ET     PET  YIELD  YIELD   SURQ   LATQ   PERC   CROP  ORGANIC SOLUBLE ORGANIC
        (mm)   (mm)   (mm)   (mm)   (mm)   (mm)   (mm)   (mm)   (mm)   (mm) (t/ha)  -----------------(kg nutrient/ha)------------------

 20111448.98 476.89 134.84 269.82 306.56   0.00 111.57 523.091062.35 879.25   3.28   1.59   1.74  26.48  24.79     3.51    0.14    0.49
1
    SWAT Jun 01 2011    VER 2009/Rev. 481                                           

    General Input/Output section (file.cio):                                        
    2022/4/11 0:00:00 ARCGIS-SWAT interface AV                                      
                                                                                    
Annual Summary for Watershed in year   19 of simulation

 UNIT                              PERCO   TILE                       WATER    SED    NO3    NO3    NO3    NO3        N       P       P
 TIME   PREC   SURQ   LATQ    GWQ   LATE      Q    SW     ET     PET  YIELD  YIELD   SURQ   LATQ   PERC   CROP  ORGANIC SOLUBLE ORGANIC
        (mm)   (mm)   (mm)   (mm)   (mm)   (mm)   (mm)   (mm)   (mm)   (mm) (t/ha)  -----------------(kg nutrient/ha)------------------

 20121970.81 662.29 219.30 503.01 571.97   0.00 132.65 492.161019.171380.12   5.03   2.13   1.87  30.50  22.65     4.21    0.20    0.59
1
    SWAT Jun 01 2011    VER 2009/Rev. 481                                           

    General Input/Output section (file.cio):                                        
    2022/4/11 0:00:00 ARCGIS-SWAT interface AV                                      
                                                                                    
Annual Summary for Watershed in year   20 of simulation

 UNIT                              PERCO   TILE                       WATER    SED    NO3    NO3    NO3    NO3        N       P       P
 TIME   PREC   SURQ   LATQ    GWQ   LATE      Q    SW     ET     PET  YIELD  YIELD   SURQ   LATQ   PERC   CROP  ORGANIC SOLUBLE ORGANIC
        (mm)   (mm)   (mm)   (mm)   (mm)   (mm)   (mm)   (mm)   (mm)   (mm) (t/ha)  -----------------(kg nutrient/ha)------------------

 20131601.14 478.41 150.60 336.46 334.12   0.00 112.55 659.791055.44 962.18   3.67   1.63   1.46  21.74  21.51     3.63    0.15    0.50
1
    SWAT Jun 01 2011    VER 2009/Rev. 481                                           

    General Input/Output section (file.cio):                                        
    2022/4/11 0:00:00 ARCGIS-SWAT interface AV                                      
                                                                                    
Annual Summary for Watershed in year   21 of simulation

 UNIT                              PERCO   TILE                       WATER    SED    NO3    NO3    NO3    NO3        N       P       P
 TIME   PREC   SURQ   LATQ    GWQ   LATE      Q    SW     ET     PET  YIELD  YIELD   SURQ   LATQ   PERC   CROP  ORGANIC SOLUBLE ORGANIC
        (mm)   (mm)   (mm)   (mm)   (mm)   (mm)   (mm)   (mm)   (mm)   (mm) (t/ha)  -----------------(kg nutrient/ha)------------------

 20141503.26 441.74 145.77 303.51 326.00   0.00  55.74 647.671058.30 887.66   3.06   1.51   1.61  29.06  24.55     2.98    0.14    0.41
1
    SWAT Jun 01 2011    VER 2009/Rev. 481                                           

    General Input/Output section (file.cio):                                        
    2022/4/11 0:00:00 ARCGIS-SWAT interface AV                                      
                                                                                    
Annual Summary for Watershed in year   22 of simulation

 UNIT                              PERCO   TILE                       WATER    SED    NO3    NO3    NO3    NO3        N       P       P
 TIME   PREC   SURQ   LATQ    GWQ   LATE      Q    SW     ET     PET  YIELD  YIELD   SURQ   LATQ   PERC   CROP  ORGANIC SOLUBLE ORGANIC
        (mm)   (mm)   (mm)   (mm)   (mm)   (mm)   (mm)   (mm)   (mm)   (mm) (t/ha)  -----------------(kg nutrient/ha)------------------

 20151800.78 547.49 163.72 321.15 364.65   0.00 125.72 651.96 994.171029.38   3.56   1.77   1.82  29.44  22.12     3.76    0.17    0.52
1
    SWAT Jun 01 2011    VER 2009/Rev. 481                                           

    General Input/Output section (file.cio):                                        
    2022/4/11 0:00:00 ARCGIS-SWAT interface AV                                      
                                                                                    
Annual Summary for Watershed in year   23 of simulation

 UNIT                              PERCO   TILE                       WATER    SED    NO3    NO3    NO3    NO3        N       P       P
 TIME   PREC   SURQ   LATQ    GWQ   LATE      Q    SW     ET     PET  YIELD  YIELD   SURQ   LATQ   PERC   CROP  ORGANIC SOLUBLE ORGANIC
        (mm)   (mm)   (mm)   (mm)   (mm)   (mm)   (mm)   (mm)   (mm)   (mm) (t/ha)  -----------------(kg nutrient/ha)------------------

 20162716.391149.02 262.37 632.88 688.04   0.00 119.22 621.34 988.482039.33   8.19   3.72   2.44  35.39  19.16     7.14    0.32    1.00
1
    SWAT Jun 01 2011    VER 2009/Rev. 481                                           

    General Input/Output section (file.cio):                                        
    2022/4/11 0:00:00 ARCGIS-SWAT interface AV                                      
                                                                                    
Annual Summary for Watershed in year   24 of simulation

 UNIT                              PERCO   TILE                       WATER    SED    NO3    NO3    NO3    NO3        N       P       P
 TIME   PREC   SURQ   LATQ    GWQ   LATE      Q    SW     ET     PET  YIELD  YIELD   SURQ   LATQ   PERC   CROP  ORGANIC SOLUBLE ORGANIC
        (mm)   (mm)   (mm)   (mm)   (mm)   (mm)   (mm)   (mm)   (mm)   (mm) (t/ha)  -----------------(kg nutrient/ha)------------------

 20171509.37 508.60 142.76 329.95 339.43   0.00  85.25 553.701091.75 978.31   4.53   2.16   1.56  26.33  19.15     2.89    0.14    0.39
1
    SWAT Jun 01 2011    VER 2009/Rev. 481                                           

    General Input/Output section (file.cio):                                        
    2022/4/11 0:00:00 ARCGIS-SWAT interface AV                                      
                                                                                    
Annual Summary for Watershed in year   25 of simulation

 UNIT                              PERCO   TILE                       WATER    SED    NO3    NO3    NO3    NO3        N       P       P
 TIME   PREC   SURQ   LATQ    GWQ   LATE      Q    SW     ET     PET  YIELD  YIELD   SURQ   LATQ   PERC   CROP  ORGANIC SOLUBLE ORGANIC
        (mm)   (mm)   (mm)   (mm)   (mm)   (mm)   (mm)   (mm)   (mm)   (mm) (t/ha)  -----------------(kg nutrient/ha)------------------

 20181850.10 652.25 166.35 347.18 391.56   0.00 113.84 609.361037.021162.94   3.95   2.27   2.02  30.28  21.72     3.65    0.19    0.52
1
    SWAT Jun 01 2011    VER 2009/Rev. 481                                           

    General Input/Output section (file.cio):                                        
    2022/4/11 0:00:00 ARCGIS-SWAT interface AV                                      
                                                                                    
    FINAL VALUES

1
    SWAT Jun 01 2011    VER 2009/Rev. 481                                           

    General Input/Output section (file.cio):                                        
    2022/4/11 0:00:00 ARCGIS-SWAT interface AV                                      
                                                                                    
                                            Average Crop Values
                                 Crop 1              Crop 2              Crop 3
                             Yld      Biomass   Yld      Biomass      Yld      Biomass
                           (kg/ha)    (kg/ha)  (kg/ha)   (kg/ha)     (kg/ha)    (kg/ha)

 FRST  HRU      1 Rot   1     0.0   30709.7       0.0   14365.5       0.0       0.0
 FRST  HRU      2 Rot   1     0.0   36061.4       0.0   14155.2       0.0       0.0
 ORCD  HRU      3 Rot   1     0.0   28099.0       0.0   10716.7       0.0       0.0
 FRST  HRU      4 Rot   1     0.0   30671.5       0.0   14324.0       0.0       0.0
 FRST  HRU      5 Rot   1     0.0   35949.1       0.0   14103.1       0.0       0.0
 RICE  HRU      6 Rot   1     0.0       0.0    2779.5    7181.7       0.0       0.0
 FRST  HRU      7 Rot   1     0.0   30661.0       0.0   14292.1       0.0       0.0
 BERM  HRU      8 Rot   1     0.0       0.0   10347.6   14829.1       0.0       0.0
 FRST  HRU      9 Rot   1     0.0   30665.3       0.0   14304.3       0.0       0.0
 FRST  HRU     10 Rot   1     0.0   35897.8       0.0   14076.9       0.0       0.0
 ORCD  HRU     11 Rot   1     0.0   27935.5       0.0   10643.9       0.0       0.0
 ORCD  HRU     12 Rot   1     0.0   27730.4       0.0   10426.3       0.0       0.0
 ORCD  HRU     13 Rot   1     0.0   27977.7       0.0   10517.7       0.0       0.0
 FRST  HRU     14 Rot   1     0.0   30659.3       0.0   14308.4       0.0       0.0
 ORCD  HRU     15 Rot   1     0.0   28070.4       0.0   10702.5       0.0       0.0
 WATR  HRU     16 Rot   1     0.0       0.0       0.0       0.0       0.0       0.0
 RICE  HRU     17 Rot   1     0.0       0.0    2241.5    5792.6       0.0       0.0
 RICE  HRU     18 Rot   1     0.0       0.0    2232.9    5770.5       0.0       0.0
 FRST  HRU     19 Rot   1     0.0   26341.6       0.0   11863.6       0.0       0.0
 FRST  HRU     20 Rot   1     0.0   23738.8       0.0    9125.2       0.0       0.0
 FRST  HRU     21 Rot   1     0.0   30669.5       0.0   14324.2       0.0       0.0
 ORCD  HRU     22 Rot   1     0.0   28112.0       0.0   10720.4       0.0       0.0
 ORCD  HRU     23 Rot   1     0.0   28166.4       0.0   10606.3       0.0       0.0
 RICE  HRU     24 Rot   1     0.0       0.0    2225.3    5750.7       0.0       0.0
 RICE  HRU     25 Rot   1     0.0       0.0    2232.4    5769.0       0.0       0.0
 FRST  HRU     26 Rot   1     0.0   26309.2       0.0   11837.1       0.0       0.0
 FRST  HRU     27 Rot   1     0.0   23920.4       0.0    8974.7       0.0       0.0
 ORCD  HRU     28 Rot   1     0.0   23971.3       0.0    8157.1       0.0       0.0
 ORCD  HRU     29 Rot   1     0.0   23836.7       0.0    8114.3       0.0       0.0
 BERM  HRU     30 Rot   1     0.0       0.0    9509.6   13634.3       0.0       0.0
 BERM  HRU     31 Rot   1     0.0       0.0    8553.1   12264.1       0.0       0.0
 RICE  HRU     32 Rot   1     0.0       0.0    2132.3    5510.5       0.0       0.0
 RICE  HRU     33 Rot   1     0.0       0.0    2226.4    5753.6       0.0       0.0
 FRST  HRU     34 Rot   1     0.0   28128.7       0.0   10961.2       0.0       0.0
 FRST  HRU     35 Rot   1     0.0   23831.8       0.0    8886.5       0.0       0.0
 ORCD  HRU     36 Rot   1     0.0   24000.3       0.0    7744.1       0.0       0.0
 BERM  HRU     37 Rot   1     0.0       0.0   11911.8   17082.1       0.0       0.0
 BERM  HRU     38 Rot   1     0.0       0.0    8556.7   12269.3       0.0       0.0
 RICE  HRU     39 Rot   1     0.0       0.0    2240.8    5790.7       0.0       0.0
 RICE  HRU     40 Rot   1     0.0       0.0    2219.1    5734.9       0.0       0.0
 RICE  HRU     41 Rot   1     0.0       0.0     519.4    1551.6       0.0       0.0
 RICE  HRU     42 Rot   1     0.0       0.0    2226.9    5754.7       0.0       0.0
 FRST  HRU     43 Rot   1     0.0   26349.1       0.0   11873.1       0.0       0.0
 FRST  HRU     44 Rot   1     0.0   29694.8       0.0   12315.1       0.0       0.0
 FRST  HRU     45 Rot   1     0.0   23673.7       0.0    9044.3       0.0       0.0
 FRST  HRU     46 Rot   1     0.0   13142.2       0.0    4497.5       0.0       0.0
 ORCD  HRU     47 Rot   1     0.0   23986.3       0.0    8179.8       0.0       0.0
 ORCD  HRU     48 Rot   1     0.0   24248.0       0.0    8382.9       0.0       0.0
 ORCD  HRU     49 Rot   1     0.0   23938.0       0.0    8179.5       0.0       0.0
 ORCD  HRU     50 Rot   1     0.0   11137.2       0.0    4243.2       0.0       0.0
 RICE  HRU     51 Rot   1     0.0       0.0    2227.7    5756.6       0.0       0.0
 RICE  HRU     52 Rot   1     0.0       0.0    2221.2    5740.1       0.0       0.0
 FRST  HRU     53 Rot   1     0.0   26112.5       0.0   11971.2       0.0       0.0
 FRST  HRU     54 Rot   1     0.0   23595.3       0.0    9209.0       0.0       0.0
 ORCD  HRU     55 Rot   1     0.0   23873.2       0.0    8236.3       0.0       0.0
 ORCD  HRU     56 Rot   1     0.0   23962.9       0.0    8196.2       0.0       0.0
 RICE  HRU     57 Rot   1     0.0       0.0    2265.3    5854.1       0.0       0.0
 RICE  HRU     58 Rot   1     0.0       0.0    2239.8    5788.2       0.0       0.0
 WWHT  HRU     59 Rot   1     0.0       0.0    2831.5    9156.2       0.0       0.0
 WWHT  HRU     60 Rot   1     0.0       0.0    2835.5    9168.9       0.0       0.0
 FRST  HRU     61 Rot   1     0.0   26444.1       0.0   12451.0       0.0       0.0
 FRST  HRU     62 Rot   1     0.0   29063.4       0.0   11909.6       0.0       0.0
 FRST  HRU     63 Rot   1     0.0   24014.7       0.0    9315.5       0.0       0.0
 ORCD  HRU     64 Rot   1     0.0   24108.4       0.0    8446.0       0.0       0.0
 ORCD  HRU     65 Rot   1     0.0   24516.5       0.0    8227.0       0.0       0.0
 ORCD  HRU     66 Rot   1     0.0   24201.8       0.0    8503.7       0.0       0.0
 RICE  HRU     67 Rot   1     0.0       0.0    2811.9    7265.4       0.0       0.0
 RICE  HRU     68 Rot   1     0.0       0.0    2933.6    7579.8       0.0       0.0
 RICE  HRU     69 Rot   1     0.0       0.0    2768.7    7155.0       0.0       0.0
 FRST  HRU     70 Rot   1     0.0   36275.4       0.0   13753.5       0.0       0.0
 FRST  HRU     71 Rot   1     0.0   38148.2       0.0   14534.8       0.0       0.0
 FRST  HRU     72 Rot   1     0.0   28970.6       0.0   10559.9       0.0       0.0
 ORCD  HRU     73 Rot   1     0.0   28562.2       0.0   10177.1       0.0       0.0
 ORCD  HRU     74 Rot   1     0.0   29505.6       0.0   10651.1       0.0       0.0
 ORCD  HRU     75 Rot   1     0.0   27432.1       0.0    9491.9       0.0       0.0
 ORCD  HRU     76 Rot   1     0.0   28824.1       0.0   10371.4       0.0       0.0
 RICE  HRU     77 Rot   1     0.0       0.0    2850.1    7363.9       0.0       0.0
 RICE  HRU     78 Rot   1     0.0       0.0    2800.5    7235.9       0.0       0.0
 RICE  HRU     79 Rot   1     0.0       0.0    2833.2    7320.6       0.0       0.0
 RICE  HRU     80 Rot   1     0.0       0.0    2830.2    7312.4       0.0       0.0
 FRST  HRU     81 Rot   1     0.0   34657.6       0.0   13169.9       0.0       0.0
 FRST  HRU     82 Rot   1     0.0   29368.8       0.0   10933.3       0.0       0.0
 ORCD  HRU     83 Rot   1     0.0   28059.8       0.0   10785.8       0.0       0.0
 ORCD  HRU     84 Rot   1     0.0   29397.3       0.0   11199.7       0.0       0.0
 ORCD  HRU     85 Rot   1     0.0   27741.3       0.0   10231.5       0.0       0.0
 ORCD  HRU     86 Rot   1     0.0   28669.2       0.0   10911.7       0.0       0.0
 RICE  HRU     87 Rot   1     0.0       0.0    2160.3    5582.9       0.0       0.0
 RICE  HRU     88 Rot   1     0.0       0.0    2221.9    5741.9       0.0       0.0
 RICE  HRU     89 Rot   1     0.0       0.0    2229.1    5760.4       0.0       0.0
 FRST  HRU     90 Rot   1     0.0   26326.8       0.0   11849.8       0.0       0.0
 FRST  HRU     91 Rot   1     0.0   28759.5       0.0   11250.8       0.0       0.0
 FRST  HRU     92 Rot   1     0.0   23658.7       0.0    9022.1       0.0       0.0
 ORCD  HRU     93 Rot   1     0.0   23983.3       0.0    8175.6       0.0       0.0
 ORCD  HRU     94 Rot   1     0.0   24208.0       0.0    7873.4       0.0       0.0
 ORCD  HRU     95 Rot   1     0.0   23950.6       0.0    8212.3       0.0       0.0
 BERM  HRU     96 Rot   1     0.0       0.0   11272.6   16165.1       0.0       0.0
 BERM  HRU     97 Rot   1     0.0       0.0    8540.0   12245.3       0.0       0.0
 RICE  HRU     98 Rot   1     0.0       0.0    2234.6    5774.7       0.0       0.0
 RICE  HRU     99 Rot   1     0.0       0.0    2214.8    5723.7       0.0       0.0
 RICE  HRU    100 Rot   1     0.0       0.0    2230.6    5764.3       0.0       0.0
 FRST  HRU    101 Rot   1     0.0   26300.7       0.0   11831.9       0.0       0.0
 FRST  HRU    102 Rot   1     0.0   29612.9       0.0   12315.1       0.0       0.0
 FRST  HRU    103 Rot   1     0.0   23517.5       0.0    8853.2       0.0       0.0
 ORCD  HRU    104 Rot   1     0.0   23946.0       0.0    8136.3       0.0       0.0
 ORCD  HRU    105 Rot   1     0.0   23954.1       0.0    8196.3       0.0       0.0
 BERM  HRU    106 Rot   1     0.0       0.0    7525.7   10791.2       0.0       0.0
 BERM  HRU    107 Rot   1     0.0       0.0    8535.7   12239.2       0.0       0.0
 RICE  HRU    108 Rot   1     0.0       0.0    2202.0    5690.3       0.0       0.0
 RICE  HRU    109 Rot   1     0.0       0.0    2217.2    5729.7       0.0       0.0
 RICE  HRU    110 Rot   1     0.0       0.0    2191.8    5664.0       0.0       0.0
 WWHT  HRU    111 Rot   1     0.0       0.0    2763.5    8936.1       0.0       0.0
 WWHT  HRU    112 Rot   1     0.0       0.0    2725.8    8814.1       0.0       0.0
 WWHT  HRU    113 Rot   1     0.0       0.0    2785.5    9007.2       0.0       0.0
 FRST  HRU    114 Rot   1     0.0   26025.4       0.0   11628.3       0.0       0.0
 FRST  HRU    115 Rot   1     0.0   28402.9       0.0   11073.7       0.0       0.0
 FRST  HRU    116 Rot   1     0.0   23633.6       0.0    8874.7       0.0       0.0
 ORCD  HRU    117 Rot   1     0.0   23812.1       0.0    7989.0       0.0       0.0
 ORCD  HRU    118 Rot   1     0.0   24157.6       0.0    7712.9       0.0       0.0
 ORCD  HRU    119 Rot   1     0.0   23895.3       0.0    8031.0       0.0       0.0
 RICE  HRU    120 Rot   1     0.0       0.0    2241.2    5791.7       0.0       0.0
 RICE  HRU    121 Rot   1     0.0       0.0    2236.9    5780.7       0.0       0.0
 RICE  HRU    122 Rot   1     0.0       0.0    2236.9    5780.6       0.0       0.0
 FRST  HRU    123 Rot   1     0.0   26432.7       0.0   12439.8       0.0       0.0
 FRST  HRU    124 Rot   1     0.0   23963.1       0.0    9267.9       0.0       0.0
 ORCD  HRU    125 Rot   1     0.0   24095.3       0.0    8434.6       0.0       0.0
 ORCD  HRU    126 Rot   1     0.0   24201.4       0.0    8501.6       0.0       0.0
 FRST  HRU    127 Rot   1     0.0   25950.1       0.0   10888.2       0.0       0.0
 FRST  HRU    128 Rot   1     0.0   29384.7       0.0   11087.7       0.0       0.0
 FRST  HRU    129 Rot   1     0.0   28438.9       0.0   10712.0       0.0       0.0
 FRST  HRU    130 Rot   1     0.0   23663.2       0.0    8016.5       0.0       0.0
 ORCD  HRU    131 Rot   1     0.0   23559.9       0.0    7647.4       0.0       0.0
 ORCD  HRU    132 Rot   1     0.0   23821.6       0.0    7346.3       0.0       0.0
 ORCD  HRU    133 Rot   1     0.0   23979.5       0.0    7666.2       0.0       0.0
 BERM  HRU    134 Rot   1     0.0       0.0    9097.5   13043.7       0.0       0.0
 BERM  HRU    135 Rot   1     0.0       0.0   10348.9   14839.6       0.0       0.0
 BERM  HRU    136 Rot   1     0.0       0.0   12224.8   17530.0       0.0       0.0
 BERM  HRU    137 Rot   1     0.0       0.0    7510.4   10768.1       0.0       0.0
 BERM  HRU    138 Rot   1     0.0       0.0    7358.4   10551.5       0.0       0.0
 RICE  HRU    139 Rot   1     0.0       0.0    2288.0    5912.6       0.0       0.0
 RICE  HRU    140 Rot   1     0.0       0.0    2097.3    5419.9       0.0       0.0
 RICE  HRU    141 Rot   1     0.0       0.0    2191.5    5663.1       0.0       0.0
 RICE  HRU    142 Rot   1     0.0       0.0    2195.7    5674.1       0.0       0.0
 WWHT  HRU    143 Rot   1     0.0       0.0    2696.1    8718.3       0.0       0.0
 WWHT  HRU    144 Rot   1     0.0       0.0    2770.5    8959.0       0.0       0.0
 WWHT  HRU    145 Rot   1     0.0       0.0    2738.0    8853.8       0.0       0.0
 FRST  HRU    146 Rot   1     0.0   25878.9       0.0   11096.6       0.0       0.0
 FRST  HRU    147 Rot   1     0.0   29329.2       0.0   11035.2       0.0       0.0
 FRST  HRU    148 Rot   1     0.0   30370.3       0.0   11534.8       0.0       0.0
 FRST  HRU    149 Rot   1     0.0   28317.8       0.0   10488.6       0.0       0.0
 FRST  HRU    150 Rot   1     0.0   23378.7       0.0    8557.6       0.0       0.0
 FRST  HRU    151 Rot   1     0.0   23430.9       0.0    8530.9       0.0       0.0
 ORCD  HRU    152 Rot   1     0.0   24393.5       0.0    7861.0       0.0       0.0
 ORCD  HRU    153 Rot   1     0.0   23912.0       0.0    7325.3       0.0       0.0
 ORCD  HRU    154 Rot   1     0.0   23600.3       0.0    7690.7       0.0       0.0
 ORCD  HRU    155 Rot   1     0.0   23326.5       0.0    7577.0       0.0       0.0
 BERM  HRU    156 Rot   1     0.0       0.0   11722.2   16810.3       0.0       0.0
 BERM  HRU    157 Rot   1     0.0       0.0    7480.9   10726.3       0.0       0.0
 BERM  HRU    158 Rot   1     0.0       0.0    8390.5   12030.7       0.0       0.0
 RICE  HRU    159 Rot   1     0.0       0.0    2243.9    5798.9       0.0       0.0
 RICE  HRU    160 Rot   1     0.0       0.0    2238.1    5783.8       0.0       0.0
 FRST  HRU    161 Rot   1     0.0   26455.8       0.0   12276.6       0.0       0.0
 FRST  HRU    162 Rot   1     0.0   23807.9       0.0    8551.0       0.0       0.0
 BERM  HRU    163 Rot   1     0.0       0.0   10255.6   14704.2       0.0       0.0
 BERM  HRU    164 Rot   1     0.0       0.0    8445.8   12110.9       0.0       0.0
 RICE  HRU    165 Rot   1     0.0       0.0    2235.1    5776.1       0.0       0.0
 RICE  HRU    166 Rot   1     0.0       0.0    2237.1    5781.2       0.0       0.0
 FRST  HRU    167 Rot   1     0.0   25177.5       0.0   11776.3       0.0       0.0
 FRST  HRU    168 Rot   1     0.0   26451.1       0.0   12273.3       0.0       0.0
 FRST  HRU    169 Rot   1     0.0   23581.0       0.0    8554.7       0.0       0.0
 ORCD  HRU    170 Rot   1     0.0   21743.7       0.0    8547.9       0.0       0.0
 ORCD  HRU    171 Rot   1     0.0   23888.7       0.0    8447.3       0.0       0.0
 BERM  HRU    172 Rot   1     0.0       0.0    9766.4   14002.7       0.0       0.0
 BERM  HRU    173 Rot   1     0.0       0.0    8448.3   12114.4       0.0       0.0
 FRST  HRU    174 Rot   1     0.0   26830.2       0.0   12252.8       0.0       0.0
 ORCD  HRU    175 Rot   1     0.0   23926.2       0.0    8406.3       0.0       0.0
 ORCD  HRU    176 Rot   1     0.0   23850.4       0.0    8436.5       0.0       0.0
 RICE  HRU    177 Rot   1     0.0       0.0    2127.5    5498.2       0.0       0.0
 RICE  HRU    178 Rot   1     0.0       0.0    2237.1    5781.1       0.0       0.0
 FRST  HRU    179 Rot   1     0.0   26230.4       0.0   11230.1       0.0       0.0
 FRST  HRU    180 Rot   1     0.0   29632.0       0.0   11414.1       0.0       0.0
 FRST  HRU    181 Rot   1     0.0   28984.9       0.0   11204.0       0.0       0.0
 FRST  HRU    182 Rot   1     0.0   23458.2       0.0    8126.5       0.0       0.0
 ORCD  HRU    183 Rot   1     0.0   23708.6       0.0    7748.8       0.0       0.0
 ORCD  HRU    184 Rot   1     0.0   23981.6       0.0    7725.6       0.0       0.0
 ORCD  HRU    185 Rot   1     0.0   24266.5       0.0    7534.4       0.0       0.0
 ORCD  HRU    186 Rot   1     0.0   24175.1       0.0    7816.6       0.0       0.0
 RICE  HRU    187 Rot   1     0.0       0.0    2149.1    5553.8       0.0       0.0
 RICE  HRU    188 Rot   1     0.0       0.0    2227.6    5756.5       0.0       0.0
 RICE  HRU    189 Rot   1     0.0       0.0    2237.6    5782.4       0.0       0.0
 WWHT  HRU    190 Rot   1     0.0       0.0    2695.6    8716.6       0.0       0.0
 WWHT  HRU    191 Rot   1     0.0       0.0    2785.0    9005.6       0.0       0.0
 FRST  HRU    192 Rot   1     0.0   26274.3       0.0   11294.4       0.0       0.0
 FRST  HRU    193 Rot   1     0.0   28010.6       0.0   10822.9       0.0       0.0
 FRST  HRU    194 Rot   1     0.0   23451.5       0.0    8122.2       0.0       0.0
 FRST  HRU    195 Rot   1     0.0   23515.5       0.0    8161.9       0.0       0.0
 ORCD  HRU    196 Rot   1     0.0   23920.0       0.0    7378.7       0.0       0.0
 ORCD  HRU    197 Rot   1     0.0   24181.6       0.0    7806.8       0.0       0.0
 ORCD  HRU    198 Rot   1     0.0   23799.9       0.0    7721.4       0.0       0.0
 BERM  HRU    199 Rot   1     0.0       0.0   11449.9   16419.0       0.0       0.0
 BERM  HRU    200 Rot   1     0.0       0.0    7973.9   11434.1       0.0       0.0
 FRST  HRU    201 Rot   1     0.0   26802.0       0.0   12216.6       0.0       0.0
 FRST  HRU    202 Rot   1     0.0   24027.7       0.0    9180.2       0.0       0.0
 ORCD  HRU    203 Rot   1     0.0   23925.8       0.0    8406.8       0.0       0.0
 ORCD  HRU    204 Rot   1     0.0   23850.6       0.0    8436.8       0.0       0.0
 RICE  HRU    205 Rot   1     0.0       0.0    2264.5    5851.9       0.0       0.0
 RICE  HRU    206 Rot   1     0.0       0.0    2173.5    5617.0       0.0       0.0
 RICE  HRU    207 Rot   1     0.0       0.0    2258.9    5837.6       0.0       0.0
 RICE  HRU    208 Rot   1     0.0       0.0    2262.3    5846.2       0.0       0.0
 FRST  HRU    209 Rot   1     0.0   26485.6       0.0   11903.4       0.0       0.0
 FRST  HRU    210 Rot   1     0.0   29239.3       0.0   11404.3       0.0       0.0
 ORCD  HRU    211 Rot   1     0.0   23804.9       0.0    8079.3       0.0       0.0
 ORCD  HRU    212 Rot   1     0.0   24446.6       0.0    7837.4       0.0       0.0
 ORCD  HRU    213 Rot   1     0.0   23809.2       0.0    7977.5       0.0       0.0
 FRST  HRU    214 Rot   1     0.0   26816.3       0.0   12242.9       0.0       0.0
 FRST  HRU    215 Rot   1     0.0   24023.4       0.0    9176.8       0.0       0.0
 ORCD  HRU    216 Rot   1     0.0   23925.4       0.0    8407.4       0.0       0.0
 ORCD  HRU    217 Rot   1     0.0   23843.8       0.0    8419.4       0.0       0.0
 RICE  HRU    218 Rot   1     0.0       0.0    2221.9    5741.7       0.0       0.0
 RICE  HRU    219 Rot   1     0.0       0.0    2235.1    5775.8       0.0       0.0
 WWHT  HRU    220 Rot   1     0.0       0.0    2699.0    8727.6       0.0       0.0
 WWHT  HRU    221 Rot   1     0.0       0.0    2808.7    9082.6       0.0       0.0
 WWHT  HRU    222 Rot   1     0.0       0.0    2777.3    8980.8       0.0       0.0
 FRST  HRU    223 Rot   1     0.0   29002.0       0.0   11210.5       0.0       0.0
 FRST  HRU    224 Rot   1     0.0   23399.5       0.0    8095.1       0.0       0.0
 FRST  HRU    225 Rot   1     0.0   23507.7       0.0    8159.8       0.0       0.0
 BERM  HRU    226 Rot   1     0.0       0.0   11586.8   16615.4       0.0       0.0
 BERM  HRU    227 Rot   1     0.0       0.0    7474.7   10716.9       0.0       0.0
 BERM  HRU    228 Rot   1     0.0       0.0    7994.6   11463.8       0.0       0.0
 RICE  HRU    229 Rot   1     0.0       0.0    2178.6    5629.8       0.0       0.0
 RICE  HRU    230 Rot   1     0.0       0.0    2089.3    5399.2       0.0       0.0
 RICE  HRU    231 Rot   1     0.0       0.0    2198.3    5680.7       0.0       0.0
 RICE  HRU    232 Rot   1     0.0       0.0    2186.0    5649.0       0.0       0.0
 WWHT  HRU    233 Rot   1     0.0       0.0    2786.1    9009.3       0.0       0.0
 WWHT  HRU    234 Rot   1     0.0       0.0    2717.7    8788.0       0.0       0.0
 WWHT  HRU    235 Rot   1     0.0       0.0    2800.0    9054.1       0.0       0.0
 WWHT  HRU    236 Rot   1     0.0       0.0    2756.0    8911.7       0.0       0.0
 FRST  HRU    237 Rot   1     0.0   25974.2       0.0   10990.0       0.0       0.0
 FRST  HRU    238 Rot   1     0.0   28386.0       0.0   10817.1       0.0       0.0
 FRST  HRU    239 Rot   1     0.0   23580.9       0.0    8234.6       0.0       0.0
 ORCD  HRU    240 Rot   1     0.0   23742.5       0.0    7619.7       0.0       0.0
 ORCD  HRU    241 Rot   1     0.0   24133.6       0.0    7369.4       0.0       0.0
 ORCD  HRU    242 Rot   1     0.0   24047.1       0.0    7599.3       0.0       0.0
 BERM  HRU    243 Rot   1     0.0       0.0    9571.5   13722.8       0.0       0.0
 BERM  HRU    244 Rot   1     0.0       0.0   11458.3   16431.4       0.0       0.0
 BERM  HRU    245 Rot   1     0.0       0.0    7500.8   10755.1       0.0       0.0
 RICE  HRU    246 Rot   1     0.0       0.0    2071.4    5361.7       0.0       0.0
 RICE  HRU    247 Rot   1     0.0       0.0    2242.4    5795.0       0.0       0.0
 RICE  HRU    248 Rot   1     0.0       0.0    2235.9    5778.5       0.0       0.0
 RICE  HRU    249 Rot   1     0.0       0.0    2237.3    5781.6       0.0       0.0
 FRST  HRU    250 Rot   1     0.0   26497.9       0.0   12319.7       0.0       0.0
 FRST  HRU    251 Rot   1     0.0   29330.0       0.0   12034.3       0.0       0.0
 FRST  HRU    252 Rot   1     0.0   23556.0       0.0    8522.5       0.0       0.0
 FRST  HRU    253 Rot   1     0.0   23967.1       0.0    8702.1       0.0       0.0
 BERM  HRU    254 Rot   1     0.0       0.0    9677.1   13874.6       0.0       0.0
 BERM  HRU    255 Rot   1     0.0       0.0    7579.5   10868.5       0.0       0.0
 BERM  HRU    256 Rot   1     0.0       0.0    8439.6   12102.0       0.0       0.0
 RICE  HRU    257 Rot   1     0.0       0.0    2273.6    5875.6       0.0       0.0
 RICE  HRU    258 Rot   1     0.0       0.0    2180.5    5635.2       0.0       0.0
 FRST  HRU    259 Rot   1     0.0   26500.9       0.0   11908.8       0.0       0.0
 FRST  HRU    260 Rot   1     0.0   29287.7       0.0   11424.9       0.0       0.0
 ORCD  HRU    261 Rot   1     0.0   23804.6       0.0    8077.0       0.0       0.0
 ORCD  HRU    262 Rot   1     0.0   24180.8       0.0    7688.4       0.0       0.0
 RICE  HRU    263 Rot   1     0.0       0.0    2091.2    5404.4       0.0       0.0
 RICE  HRU    264 Rot   1     0.0       0.0    2191.6    5663.4       0.0       0.0
 RICE  HRU    265 Rot   1     0.0       0.0    2193.4    5668.1       0.0       0.0
 FRST  HRU    266 Rot   1     0.0   25983.1       0.0   10994.2       0.0       0.0
 FRST  HRU    267 Rot   1     0.0   28176.9       0.0   10728.5       0.0       0.0
 FRST  HRU    268 Rot   1     0.0   23767.2       0.0    8279.9       0.0       0.0
 ORCD  HRU    269 Rot   1     0.0   23728.1       0.0    7611.1       0.0       0.0
 ORCD  HRU    270 Rot   1     0.0   23669.4       0.0    7146.7       0.0       0.0
 ORCD  HRU    271 Rot   1     0.0   24006.0       0.0    7654.8       0.0       0.0
 BERM  HRU    272 Rot   1     0.0       0.0    9066.7   12998.9       0.0       0.0
 BERM  HRU    273 Rot   1     0.0       0.0   11220.9   16091.2       0.0       0.0
 BERM  HRU    274 Rot   1     0.0       0.0    7512.2   10771.4       0.0       0.0
 RICE  HRU    275 Rot   1     0.0       0.0    2267.3    5859.1       0.0       0.0
 RICE  HRU    276 Rot   1     0.0       0.0    2263.9    5850.3       0.0       0.0
 WWHT  HRU    277 Rot   1     0.0       0.0    2849.9    9215.6       0.0       0.0
 WWHT  HRU    278 Rot   1     0.0       0.0    2832.2    9158.4       0.0       0.0
 FRST  HRU    279 Rot   1     0.0   26538.5       0.0   11931.7       0.0       0.0
 FRST  HRU    280 Rot   1     0.0   24150.3       0.0    9205.3       0.0       0.0
 RICE  HRU    281 Rot   1     0.0       0.0    2286.2    5908.0       0.0       0.0
 RICE  HRU    282 Rot   1     0.0       0.0    2230.4    5764.1       0.0       0.0
 RICE  HRU    283 Rot   1     0.0       0.0    2267.0    5858.3       0.0       0.0
 FRST  HRU    284 Rot   1     0.0   26781.2       0.0   12086.1       0.0       0.0
 FRST  HRU    285 Rot   1     0.0   29227.0       0.0   11561.5       0.0       0.0
 FRST  HRU    286 Rot   1     0.0   24127.4       0.0    9002.7       0.0       0.0
 ORCD  HRU    287 Rot   1     0.0   22750.8       0.0    8261.5       0.0       0.0
 ORCD  HRU    288 Rot   1     0.0   24415.3       0.0    8121.7       0.0       0.0
 ORCD  HRU    289 Rot   1     0.0   24252.9       0.0    8147.4       0.0       0.0
 FRST  HRU    290 Rot   1     0.0   26968.2       0.0   12416.4       0.0       0.0
 ORCD  HRU    291 Rot   1     0.0   24225.6       0.0    8520.6       0.0       0.0
 RICE  HRU    292 Rot   1     0.0       0.0    2327.5    6014.7       0.0       0.0
 RICE  HRU    293 Rot   1     0.0       0.0    2311.6    5973.7       0.0       0.0
 RICE  HRU    294 Rot   1     0.0       0.0    2346.5    6063.9       0.0       0.0
 FRST  HRU    295 Rot   1     0.0   26999.7       0.0   12446.6       0.0       0.0
 FRST  HRU    296 Rot   1     0.0   23901.8       0.0    8479.3       0.0       0.0
 FRST  HRU    297 Rot   1     0.0   26922.7       0.0   12366.7       0.0       0.0
 FRST  HRU    298 Rot   1     0.0   26203.3       0.0   11825.0       0.0       0.0
 WATR  HRU    299 Rot   1     0.0       0.0       0.0       0.0       0.0       0.0
 WATR  HRU    300 Rot   1     0.0       0.0       0.0       0.0       0.0       0.0

    HRU STATISTICS

                AVE ANNUAL VALUES

 HRU  SUB CPMN SOIL    AREAkm2     CN    AWCmm USLE_LS   IRRmm AUTONkh AUTOPkh   MIXEF  PRECmm  SURQmm   GWQmm    ETmm   SEDth  NO3kgh ORGNkgh  BIOMth   YLDth
     1   1 FRSTGLH     .120E+02   79.00  107.30    8.65    0.00    0.00    0.00    0.20 1871.28  808.20  536.08  495.52    5.88    4.08    1.02   30.06    0.00
     2   1 FRSTHHR     .537E+01   73.00  121.70    5.58    0.00    0.00    0.00    0.20 1871.28  653.26  653.15  523.38    2.52    3.94   20.22   35.19    0.00
     3   1 ORCDGLH     .115E+01   83.00  107.30    5.13    0.00   49.12    1.06    0.20 1871.28  832.89  311.15  706.46    3.19    8.15    0.56   27.40    0.00
     4   2 FRSTGLH     .265E+02   79.00  107.30    6.60    0.00    0.00    0.00    0.20 1871.28  811.34  531.79  496.27    4.75    3.88    0.85   30.02    0.00
     5   2 FRSTHHR     .574E+01   73.00  121.70    4.27    0.00    0.00    0.00    0.20 1871.28  658.12  647.26  524.00    1.95    3.68   16.69   35.08    0.00
     6   3 RICEGLH     .253E+00   84.00  107.30    2.75    0.00  145.54    0.00    0.20 1871.28  917.49  329.11  594.99   59.33   10.19    6.74    7.18    2.78
     7   3 FRSTGLH     .113E+01   79.00  107.30    5.68    0.00    0.00    0.00    0.20 1871.28  813.62  528.57  494.35    3.01    3.79    0.61   30.01    0.00
     8   3 BERMGLH     .825E-01   86.22  107.30    0.78    0.00  193.91    2.94    0.20 1871.28 1053.78  133.26  669.01    2.09    6.52    3.61   14.83   10.35
     9   4 FRSTGLH     .224E+02   79.00  107.30    5.75    0.00    0.00    0.00    0.20 1871.28  812.73  530.28  496.51    4.02    3.79    0.75   30.01    0.00
    10   4 FRSTHHR     .350E+01   73.00  121.70    3.73    0.00    0.00    0.00    0.20 1871.28  660.37  644.91  524.16    1.62    3.57   14.42   35.02    0.00
    11   4 ORCDGLH     .108E+01   83.00  107.30    2.56    0.00   49.38    1.06    0.20 1871.28  843.80  295.82  707.77    1.58    4.34    0.31   27.24    0.00
    12   4 ORCDHHR     .306E+00   77.00  121.70    3.57    0.00    0.00    0.00    0.20 1871.28  688.40  442.06  708.46    1.38    2.86   12.34   27.04    0.00
    13   4 ORCDZSDT    .103E+01   83.00  110.50    2.21    0.00   87.84    2.15    0.20 1871.28  775.71  346.42  719.48    0.12    2.67    0.03   27.28    0.00
    14   5 FRSTGLH     .115E+02   79.00  107.30    6.12    0.00    0.00    0.00    0.20 1871.28  812.84  531.84  494.36    4.02    3.84    0.75   30.01    0.00
    15   5 ORCDGLH     .133E+01   83.00  107.30    3.94    0.00   49.21    1.06    0.20 1871.28  835.90  310.00  704.52    2.49    7.49    0.46   27.38    0.00
    16   5 WATRGLH     .761E+00   92.00  107.30    4.59    0.00    0.00    0.00    0.20 1871.28    0.00    0.00 1175.74    0.00    0.00    0.00    0.00    0.00
    17   6 RICEGLH     .886E+00   84.00  107.30    4.59    0.00  147.91    0.00    0.20 1781.41  857.59  317.43  583.84  116.71   20.22    8.12    5.79    2.24
    18   6 RICESSDT    .267E+00   81.00   92.00    3.46    0.00  187.13    0.00    0.20 1781.41  712.35  470.77  561.72    6.58   10.62    2.20    5.77    2.23
    19   6 FRSTGLH     .120E+02   79.00  107.30    6.57    0.00    0.00    0.00    0.20 1781.41  734.61  457.17  558.90    4.44    3.63    0.71   25.76    0.00
    20   6 FRSTSSDT    .531E+01   73.00   92.00    7.67    0.00    0.00    0.00    0.20 1781.41  531.33  684.72  521.34    0.32    2.44    0.07   23.15    0.00
    21   7 FRSTGLH     .526E+02   79.00  107.30    6.72    0.00    0.00    0.00    0.20 1871.28  811.55  535.31  495.06    4.74    3.90    0.83   30.02    0.00
    22   7 ORCDGLH     .378E+01   83.00  107.30    5.58    0.00   49.12    1.06    0.20 1871.28  832.56  314.63  705.30    3.93    8.38    0.66   27.42    0.00
    23   7 ORCDZSDT    .816E+00   83.00  110.50    4.64    0.00   87.45    2.15    0.20 1871.28  764.20  363.96  717.29    0.26    7.24    0.06   27.46    0.00
    24   8 RICEGLH     .385E+00   84.00  107.30    3.20    0.00  144.43    0.00    0.20 1781.41  863.93  307.58  583.50   74.44   12.43    7.07    5.75    2.23
    25   8 RICEZSDT    .967E+00   84.00  110.50    2.54    0.00  166.81    0.00    0.20 1781.41  783.39  326.86  640.23    6.35    6.22    2.43    5.77    2.23
    26   8 FRSTGLH     .218E+01   79.00  107.30    4.89    0.00    0.00    0.00    0.20 1781.41  737.83  454.23  557.90    2.74    3.44    0.49   25.73    0.00
    27   8 FRSTZSDT    .147E+01   79.00  110.50    3.03    0.00    0.00    0.00    0.20 1781.41  681.94  487.35  571.69    0.16    2.26    0.04   23.32    0.00
    28   8 ORCDGLH     .816E+00   83.00  107.30    3.03    0.00   34.39    0.00    0.20 1781.41  730.96  246.52  786.30    1.76    5.56    0.29   23.34    0.00
    29   8 ORCDZSDT    .120E+00   83.00  110.50    3.67    0.00   77.59    1.01    0.20 1781.41  658.43  300.51  798.28    0.16    5.92    0.03   23.21    0.00
    30   8 BERMGLH     .116E+00   86.22  107.30    2.66    0.00  193.12    2.71    0.20 1781.41  991.43  125.54  653.08   10.46    8.03    4.39   13.63    9.51
    31   8 BERMZSDT    .614E+00   86.22  110.50    0.31    0.00  208.86    2.01    0.20 1781.41  933.36  141.85  691.28    0.25    4.99    0.97   12.26    8.55
    32   9 RICELGH     .272E+00   73.00  253.40    2.55    0.00  116.35    0.00    0.20 1781.41  652.69  523.84  559.02   41.55    3.40   59.16    5.51    2.13
    33   9 RICEZSDT    .215E+00   84.00  110.50    0.91    0.00  166.40    0.00    0.20 1781.41  785.97  322.53  640.35    1.88    4.43    0.96    5.75    2.23
    34   9 FRSTLGH     .125E+01   60.00  253.40    3.32    0.00    0.00    0.00    0.20 1781.41  448.89  694.49  588.65    0.67    1.96    5.67   27.44    0.00
    35   9 FRSTZSDT    .316E+00   79.00  110.50    0.82    0.00    0.00    0.00    0.20 1781.41  687.06  479.74  571.98    0.04    2.00    0.01   23.23    0.00
    36   9 ORCDLGH     .133E+00   66.00  253.40    3.93    0.00    0.00    0.00    0.20 1781.41  445.23  466.54  837.51    0.75    2.01    5.88   23.35    0.00
    37   9 BERMLGH     .841E-01   73.82  253.40    0.93    0.00  236.97    2.57    0.20 1781.41  821.05  282.76  648.81    2.14    6.10   17.82   17.08   11.91
    38   9 BERMZSDT    .187E+00   86.22  110.50    0.16    0.00  208.86    2.01    0.20 1781.41  933.59  140.90  690.92    0.16    5.30    1.70   12.27    8.56
    39  10 RICEGLH     .868E+00   84.00  107.30    4.39    0.00  147.91    0.00    0.20 1781.41  858.03  317.87  583.40  111.12   19.94    7.99    5.79    2.24
    40  10 RICESSDT    .469E+00   81.00   92.00    2.18    0.00  194.16    0.00    0.20 1781.41  722.20  456.55  563.63    4.48    5.82    1.67    5.73    2.22
    41  10 RICESZT     .449E+00   73.00    6.30    2.59    0.00  292.58    0.43    0.20 1781.41  357.60 1081.21  277.78   44.87   11.74   13.66    1.55    0.52
    42  10 RICEZSDT    .329E+00   84.00  110.50    1.64    0.00  166.18    0.00    0.20 1781.41  785.54  323.27  641.09    3.56    4.48    1.61    5.75    2.23
    43  10 FRSTGLH     .646E+01   79.00  107.30    7.34    0.00    0.00    0.00    0.20 1781.41  733.69  459.94  558.08    4.61    3.70    0.73   25.77    0.00
    44  10 FRSTHRXT    .366E+01   60.00  136.20   11.64    0.00    0.00    0.00    0.20 1781.41  240.79  941.15  569.25    1.34    3.90    8.61   29.00    0.00
    45  10 FRSTSSDT    .277E+01   73.00   92.00    5.51    0.00    0.00    0.00    0.20 1781.41  535.27  680.17  520.87    0.21    2.27    0.05   23.09    0.00
    46  10 FRSTSZT     .174E+01   60.00    6.30    3.75    0.00    0.00    0.00    0.20 1781.41  172.56 1283.65  271.07    0.31    2.06    0.55   12.80    0.00
    47  10 ORCDGLH     .284E+00   83.00  107.30    5.97    0.00   27.34    0.00    0.20 1781.41  724.40  255.34  785.98    3.05    6.21    0.46   23.35    0.00
    48  10 ORCDHRXT    .179E+00   66.00  136.20    7.44    0.00   20.19    0.00    0.20 1781.41  269.52  698.95  791.16    0.89    5.84    5.45   23.61    0.00
    49  10 ORCDSSDT    .281E+00   77.00   92.00    2.40    0.00  108.76    2.09    0.20 1781.41  536.72  442.14  766.61    0.08    3.10    0.02   23.31    0.00
    50  10 ORCDSZT     .208E+00   66.00    6.30    2.52    0.00   85.95    1.71    0.20 1781.41  222.37 1176.75  312.71    0.25    4.16    0.43   10.86    0.00
    51  11 RICESSDT    .978E+00   81.00   92.00    0.98    0.00  210.17    0.00    0.20 1822.86  715.91  483.40  583.91    2.00    4.05    0.88    5.76    2.23
    52  11 RICEZSDT    .106E+01   84.00  110.50    1.39    0.00  175.43    0.00    0.20 1822.86  784.18  351.68  655.91    3.30    4.59    1.52    5.74    2.22
    53  11 FRSTGLH     .201E+02   79.00  107.30    3.97    0.00    0.00    0.00    0.20 1822.86  737.10  487.24  567.15    3.47    3.33    0.47   25.55    0.00
    54  11 FRSTSSDT    .334E+01   73.00   92.00    3.03    0.00    0.00    0.00    0.20 1822.86  529.15  714.77  531.08    0.16    2.01    0.03   23.02    0.00
    55  11 ORCDGLH     .245E+01   83.00  107.30    3.65    0.00   34.13    0.00    0.20 1822.86  743.06  270.16  790.01    3.02    4.20    0.38   23.25    0.00
    56  11 ORCDSSDT    .242E+01   77.00   92.00    2.37    0.00  107.35    2.11    0.20 1822.86  538.81  472.09  774.75    0.14    1.84    0.03   23.33    0.00
    57  12 RICEGLH     .264E+00   84.00  107.30    5.13    0.00  156.52    0.00    0.20 1863.78  908.33  336.73  596.11  113.66   22.36    7.73    5.85    2.27
    58  12 RICESSDT    .190E+01   81.00   92.00    3.15    0.00  190.97    0.00    0.20 1863.78  763.50  484.17  576.24    7.55    7.67    2.41    5.79    2.24
    59  12 WWHTGLH     .494E+00   84.00  107.30    5.27    0.00  192.61    0.00    0.20 1863.78  939.37  353.29  544.53   65.52   17.59   25.75    9.16    2.83
    60  12 WWHTSSDT    .122E+01   81.00   92.00    2.85    0.00  204.12    0.00    0.20 1863.78  793.94  500.57  528.14    4.13    8.64    4.69    9.17    2.84
    61  12 FRSTGLH     .730E+01   79.00  107.30    7.18    0.00    0.00    0.00    0.20 1863.78  784.08  482.75  565.86    4.94    3.88    0.75   25.88    0.00
    62  12 FRSTLGH     .428E+01   60.00  253.40    6.34    0.00    0.00    0.00    0.20 1863.78  442.77  786.63  593.11    1.42    3.22   10.82   28.38    0.00
    63  12 FRSTSSDT    .344E+01   73.00   92.00    6.22    0.00    0.00    0.00    0.20 1863.78  573.76  714.49  529.52    0.27    2.47    0.06   23.43    0.00
    64  12 ORCDGLH     .116E+01   83.00  107.30    6.02    0.00   34.38    0.00    0.20 1863.78  779.28  277.06  790.17    3.88    7.02    0.55   23.48    0.00
    65  12 ORCDLGH     .392E+00   66.00  253.40    5.36    0.00    0.00    0.00    0.20 1863.78  444.44  552.55  841.19    1.16    3.03    8.49   23.86    0.00
    66  12 ORCDSSDT    .129E+01   77.00   92.00    3.90    0.00  100.84    2.07    0.20 1863.78  567.59  493.10  769.77    0.17    6.50    0.04   23.57    0.00
    67  13 RICEHHR     .443E+01   81.00  121.70    3.71    0.00  102.82    0.00    0.20 1854.59  760.18  440.84  621.71   92.64    8.36   84.51    7.27    2.81
    68  13 RICEHUR     .307E+01   73.00  211.70    3.35    0.00   63.78    0.00    0.20 1854.59  512.36  670.65  636.10   49.93    8.94  126.62    7.58    2.93
    69  13 RICESSDT    .296E+01   81.00   92.00    3.96    0.00  215.51    0.00    0.20 1854.59  711.48  516.35  587.27    9.10    7.81    2.84    7.16    2.77
    70  13 FRSTHHR     .209E+02   73.00  121.70    6.07    0.00    0.00    0.00    0.20 1854.59  600.95  685.98  525.48    3.31    3.87   23.47   35.37    0.00
    71  13 FRSTHUR     .159E+02   60.00  211.70    6.05    0.00    0.00    0.00    0.20 1854.59  268.57 1010.93  530.61    0.90    6.64   15.12   37.20    0.00
    72  13 FRSTSSDT    .128E+02   73.00   92.00    4.94    0.00    0.00    0.00    0.20 1854.59  544.45  786.64  473.92    0.24    2.25    0.06   28.23    0.00
    73  13 ORCDHHR     .331E+01   77.00  121.70    4.87    0.00    0.00    0.00    0.20 1854.59  624.99  481.89  716.24    2.60    3.70   19.13   27.83    0.00
    74  13 ORCDHUR     .178E+01   66.00  211.70    4.80    0.00    0.00    0.00    0.20 1854.59  349.44  741.08  729.53    0.90    6.18   14.25   28.75    0.00
    75  13 ORCDLGH     .105E+01   66.00  253.40    3.62    0.00    0.00    0.00    0.20 1854.59  489.27  594.49  730.76    1.00    2.09    7.56   26.71    0.00
    76  13 ORCDSSDT    .375E+01   77.00   92.00    3.90    0.00  110.38    2.18    0.20 1854.59  559.25  558.58  699.26    0.19    6.87    0.04   28.09    0.00
    77  14 RICEHHR     .247E+01   81.00  121.70    4.52    0.00  108.85    0.00    0.20 2021.90  890.72  472.82  626.28  118.39    9.86   86.10    7.36    2.85
    78  14 RICELGH     .221E+01   73.00  253.40    4.87    0.00  108.55    0.00    0.20 2021.90  724.18  675.83  584.30  101.28    9.93   65.21    7.24    2.80
    79  14 RICESSDT    .292E+01   81.00   92.00    2.97    0.00  207.43    0.00    0.20 2021.90  839.62  545.76  594.92    7.61    7.17    2.68    7.32    2.83
    80  14 RICEZSDT    .108E+01   84.00  110.50    0.80    0.00  184.80    0.00    0.20 2021.90  928.04  398.17  661.40    2.02    5.18    1.18    7.31    2.83
    81  14 FRSTLGH     .125E+02   60.00  253.40    5.13    0.00    0.00    0.00    0.20 2021.90  519.34  924.79  529.93    1.74    3.26   12.23   33.80    0.00
    82  14 FRSTSSDT    .242E+02   73.00   92.00    5.01    0.00    0.00    0.00    0.20 2021.90  653.75  840.06  476.86    0.33    2.64    0.07   28.63    0.00
    83  14 ORCDGLH     .740E+00   83.00  107.30    3.52    0.00   48.79    0.00    0.20 2021.90  934.12  347.22  714.03    2.83    5.54    0.45   27.37    0.00
    84  14 ORCDHUR     .947E+00   66.00  211.70    4.23    0.00    0.00    0.00    0.20 2021.90  427.76  825.15  730.78    0.97    6.24   14.79   28.67    0.00
    85  14 ORCDLGH     .147E+01   66.00  253.40    4.68    0.00    0.00    0.00    0.20 2021.90  564.30  692.84  729.37    1.67    3.33   11.12   27.04    0.00
    86  14 ORCDSSDT    .338E+01   77.00   92.00    4.08    0.00  109.74    2.17    0.20 2021.90  672.79  611.08  698.89    0.26    7.38    0.05   27.96    0.00
    87  15 RICELGH     .935E+00   73.00  253.40    2.85    0.00  115.90    0.00    0.20 1781.41  642.17  537.44  558.77   53.82    5.38   61.11    5.58    2.16
    88  15 RICESSDT    .326E+00   81.00   92.00    2.89    0.00  193.76    0.00    0.20 1781.41  720.02  459.91  562.38    5.68    7.03    1.97    5.74    2.22
    89  15 RICEZSDT    .421E+00   84.00  110.50    1.84    0.00  165.93    0.00    0.20 1781.41  784.61  324.31  640.44    4.20    5.28    1.82    5.76    2.23
    90  15 FRSTGLH     .177E+01   79.00  107.30    5.70    0.00    0.00    0.00    0.20 1781.41  736.45  455.64  557.77    3.14    3.54    0.55   25.75    0.00
    91  15 FRSTLGH     .286E+01   60.00  253.40    4.23    0.00    0.00    0.00    0.20 1781.41  419.45  732.55  586.43    0.85    2.73    7.06   28.06    0.00
    92  15 FRSTSSDT    .572E+00   73.00   92.00    4.98    0.00    0.00    0.00    0.20 1781.41  536.49  678.67  520.22    0.16    2.23    0.04   23.07    0.00
    93  15 ORCDGLH     .420E+00   83.00  107.30    5.39    0.00   27.36    0.00    0.20 1781.41  725.80  253.39  785.51    2.89    6.02    0.44   23.35    0.00
    94  15 ORCDLGH     .259E+00   66.00  253.40    3.82    0.00    0.00    0.00    0.20 1781.41  416.37  501.92  836.20    0.73    2.61    5.77   23.55    0.00
    95  15 ORCDSSDT    .175E+00   77.00   92.00    6.27    0.00  101.44    2.09    0.20 1781.41  516.87  471.50  761.85    0.20    7.87    0.04   23.32    0.00
    96  15 BERMLGH     .154E+00   73.82  253.40    2.42    0.00  228.80    0.94    0.20 1781.41  812.86  294.51  647.69    6.34    8.29   27.67   16.17   11.27
    97  15 BERMZSDT    .346E+00   86.22  110.50    1.10    0.00  208.86    2.01    0.20 1781.41  933.18  140.63  691.26    0.61    5.25    1.48   12.25    8.54
    98  16 RICEGLH     .495E+00   84.00  107.30    3.52    0.00  143.83    0.00    0.20 1781.41  859.39  315.36  583.08   84.07   18.23    7.29    5.77    2.23
    99  16 RICESSDT    .649E+00   81.00   92.00    2.24    0.00  195.00    0.00    0.20 1781.41  726.07  450.64  564.16    4.69    4.07    1.72    5.72    2.21
   100  16 RICEZSDT    .311E+00   84.00  110.50    2.16    0.00  166.74    0.00    0.20 1781.41  783.60  325.89  640.40    4.76    6.03    2.01    5.76    2.23
   101  16 FRSTGLH     .547E+01   79.00  107.30    4.57    0.00    0.00    0.00    0.20 1781.41  738.36  452.68  558.09    2.87    3.40    0.51   25.72    0.00
   102  16 FRSTHRXT    .229E+01   60.00  136.20   10.08    0.00    0.00    0.00    0.20 1781.41  242.84  937.12  569.02    1.13    3.71    7.42   28.92    0.00
   103  16 FRSTSSDT    .222E+01   73.00   92.00    3.32    0.00    0.00    0.00    0.20 1781.41  549.01  660.53  521.90    0.13    1.80    0.03   22.93    0.00
   104  16 ORCDGLH     .212E+01   83.00  107.30    3.83    0.00   34.39    0.00    0.20 1781.41  736.20  238.02  787.25    2.51    4.33    0.39   23.31    0.00
   105  16 ORCDSSDT    .293E+01   77.00   92.00    3.35    0.00  108.76    2.09    0.20 1781.41  533.08  447.46  765.27    0.15    3.97    0.03   23.32    0.00
   106  16 BERMSSDT    .159E+00   81.88   92.00    2.96    0.00  206.99    0.00    0.20 1781.41  869.54  256.21  631.47    1.35    6.91    2.32   10.79    7.53
   107  16 BERMZSDT    .791E+00   86.22  110.50    1.23    0.00  208.86    2.01    0.20 1781.41  933.12  140.79  691.34    0.73    5.08    1.11   12.24    8.54
   108  17 RICEGLH     .476E+00   84.00  107.30    2.96    0.00  146.95    0.00    0.20 1860.25  894.99  340.04  596.51   73.42   12.16    6.55    5.69    2.20
   109  17 RICESSDT    .153E+01   81.00   92.00    2.49    0.00  208.43    0.00    0.20 1860.25  741.31  500.67  576.85    6.04    6.97    2.06    5.73    2.22
   110  17 RICEZSDT    .242E+00   84.00  110.50    1.36    0.00  182.41    0.00    0.20 1860.25  816.13  358.80  651.57    2.96    5.04    1.39    5.66    2.19
   111  17 WWHTGLH     .234E+00   84.00  107.30    1.42    0.00  191.23    1.12    0.20 1860.25  925.46  353.24  548.20   17.66    8.52   13.22    8.94    2.76
   112  17 WWHTLGH     .546E+00   73.00  253.40    3.60    0.00  178.54    0.00    0.20 1860.25  661.21  642.05  516.45   31.99   12.24   70.21    8.81    2.73
   113  17 WWHTSSDT    .142E+01   81.00   92.00    2.82    0.00  204.04    0.00    0.20 1860.25  765.04  523.33  529.80    4.12    8.35    4.52    9.01    2.79
   114  17 FRSTGLH     .844E+01   79.00  107.30    6.20    0.00    0.00    0.00    0.20 1860.25  759.36  502.04  566.29    4.92    3.72    0.68   25.45    0.00
   115  17 FRSTLGH     .823E+01   60.00  253.40    6.32    0.00    0.00    0.00    0.20 1860.25  413.04  815.13  589.52    1.59    3.15   11.09   27.71    0.00
   116  17 FRSTSSDT    .954E+01   73.00   92.00    3.75    0.00    0.00    0.00    0.20 1860.25  546.15  733.79  530.72    0.20    2.17    0.04   23.04    0.00
   117  17 ORCDGLH     .115E+01   83.00  107.30    4.52    0.00   34.70    0.00    0.20 1860.25  763.28  288.89  788.60    3.31    6.47    0.44   23.18    0.00
   118  17 ORCDLGH     .248E+01   66.00  253.40    5.90    0.00    0.00    0.00    0.20 1860.25  416.11  584.60  832.72    1.71    3.06   10.77   23.50    0.00
   119  17 ORCDSSDT    .208E+01   77.00   92.00    3.21    0.00  101.78    2.11    0.20 1860.25  542.15  512.99  769.65    0.17    5.97    0.03   23.26    0.00
   120  18 RICEGLH     .831E+00   84.00  107.30    3.15    0.00  153.02    0.00    0.20 1863.78  915.78  323.44  596.76   81.12   13.19    7.05    5.79    2.24
   121  18 RICESSDT    .662E+00   81.00   92.00    2.90    0.00  193.97    0.00    0.20 1863.78  765.58  481.30  576.56    6.15    6.99    2.12    5.78    2.24
   122  18 RICEZSDT    .709E+00   84.00  110.50    2.69    0.00  175.65    0.00    0.20 1863.78  835.63  341.81  653.35    6.34    4.86    2.37    5.78    2.24
   123  18 FRSTGLH     .184E+02   79.00  107.30    6.39    0.00    0.00    0.00    0.20 1863.78  785.46  480.90  565.85    4.85    3.79    0.74   25.87    0.00
   124  18 FRSTSSDT    .383E+01   73.00   92.00    4.98    0.00    0.00    0.00    0.20 1863.78  576.18  711.25  529.36    0.22    2.36    0.05   23.38    0.00
   125  18 ORCDGLH     .119E+01   83.00  107.30    4.16    0.00   34.48    0.00    0.20 1863.78  783.27  271.65  790.48    2.71    6.27    0.41   23.47    0.00
   126  18 ORCDSSDT    .280E+00   77.00   92.00    3.69    0.00  100.84    2.07    0.20 1863.78  568.31  492.38  769.68    0.14    6.35    0.03   23.57    0.00
   127  19 FRSTGLH     .901E+01   79.00  107.30    5.46    0.00    0.00    0.00    0.20 1820.34  725.51  496.56  565.86    4.97    3.46    0.61   25.35    0.00
   128  19 FRSTHHR     .485E+01   73.00  121.70    5.48    0.00    0.00    0.00    0.20 1820.34  570.22  622.54  587.21    3.41    3.74   21.17   28.65    0.00
   129  19 FRSTLGH     .112E+02   60.00  253.40    5.03    0.00    0.00    0.00    0.20 1820.34  392.07  796.39  588.18    1.60    2.81   10.28   27.73    0.00
   130  19 FRSTSSDT    .444E+01   73.00   92.00    5.27    0.00    0.00    0.00    0.20 1820.34  513.45  727.58  532.30    0.30    2.19    0.05   23.04    0.00
   131  19 ORCDGLH     .151E+01   83.00  107.30    4.71    0.00   27.71    0.00    0.20 1820.34  727.19  285.71  789.03    4.02    5.79    0.46   22.92    0.00
   132  19 ORCDLGH     .223E+01   66.00  253.40    3.77    0.00    0.00    0.00    0.20 1820.34  405.30  551.31  834.60    1.35    2.58    8.45   23.16    0.00
   133  19 ORCDSSDT    .632E+00   77.00   92.00    6.37    0.00  101.78    2.11    0.20 1820.34  502.95  513.16  771.83    0.33    7.95    0.06   23.33    0.00
   134  19 BERMGLH     .366E+00   86.22  107.30    4.43    0.00  195.34    1.88    0.20 1820.34  993.22  157.61  659.25   22.58   12.03    4.04   13.04    9.10
   135  19 BERMHHR     .309E+00   81.88  121.70    3.44    0.00  199.04    0.98    0.20 1820.34  893.95  237.81  671.22   10.78    9.74   41.38   14.84   10.35
   136  19 BERMLGH     .789E+00   73.82  253.40    4.01    0.00  247.22    3.45    0.20 1820.34  799.70  339.69  655.98   12.23    9.44   32.29   17.53   12.22
   137  19 BERMSSDT    .653E+00   81.88   92.00    3.69    0.00  207.24    0.00    0.20 1820.34  862.66  295.83  639.09    2.01    9.30    1.58   10.77    7.51
   138  19 BERMZSDT    .495E+00   86.22  110.50    1.64    0.00  205.36    0.00    0.20 1820.34  941.91  165.06  696.66    1.02    5.08    1.45   10.55    7.36
   139  20 RICEHUR     .123E+01   73.00  211.70    3.50    0.00   42.43    0.00    0.20 1665.70  441.81  571.97  620.18   44.67    7.96  123.35    5.91    2.29
   140  20 RICELGH     .635E+00   73.00  253.40    2.76    0.00  102.82    0.00    0.20 1665.70  551.44  509.98  560.44   41.80    2.63   58.52    5.42    2.10
   141  20 RICESSDT    .218E+01   81.00   92.00    2.90    0.00  194.69    0.00    0.20 1665.70  618.96  444.38  564.61    6.07    6.00    2.01    5.66    2.19
   142  20 RICEZSDT    .204E+01   84.00  110.50    1.65    0.00  164.30    0.00    0.20 1665.70  679.35  316.33  639.71    3.87    4.62    1.66    5.67    2.20
   143  20 WWHTLGH     .682E+00   73.00  253.40    2.97    0.00  174.35    0.00    0.20 1665.70  551.84  567.14  508.84   23.42   10.88   64.40    8.72    2.70
   144  20 WWHTSSDT    .746E+00   81.00   92.00    3.62    0.00  194.84    0.00    0.20 1665.70  638.16  471.61  520.09    4.09   10.65    4.37    8.96    2.77
   145  20 WWHTZSDT    .591E+00   84.00  110.50    2.12    0.00  193.64    0.00    0.20 1665.70  707.97  330.82  595.74    2.76    6.80    3.84    8.85    2.74
   146  20 FRSTGLH     .226E+01   79.00  107.30    4.78    0.00    0.00    0.00    0.20 1665.70  632.55  442.82  559.75    2.88    2.98    0.42   25.29    0.00
   147  20 FRSTHHR     .369E+01   73.00  121.70    6.05    0.00    0.00    0.00    0.20 1665.70  488.36  560.45  579.99    2.65    3.50   18.32   28.60    0.00
   148  20 FRSTHUR     .240E+01   60.00  211.70    7.26    0.00    0.00    0.00    0.20 1665.70  216.95  823.13  589.36    0.78    7.28   12.27   29.62    0.00
   149  20 FRSTLGH     .310E+01   60.00  253.40    3.92    0.00    0.00    0.00    0.20 1665.70  336.68  703.35  584.29    0.76    2.35    5.81   27.60    0.00
   150  20 FRSTSSDT    .626E+01   73.00   92.00    5.82    0.00    0.00    0.00    0.20 1665.70  441.94  656.70  523.78    0.25    1.97    0.05   22.79    0.00
   151  20 FRSTZSDT    .228E+01   79.00  110.50    3.80    0.00    0.00    0.00    0.20 1665.70  578.97  474.74  573.00    0.22    1.93    0.04   22.83    0.00
   152  20 ORCDHUR     .608E+00   66.00  211.70    5.51    0.00    0.00    0.00    0.20 1665.70  257.72  561.42  823.51    0.83    6.35   11.75   23.73    0.00
   153  20 ORCDLGH     .705E+00   66.00  253.40    4.10    0.00    0.00    0.00    0.20 1665.70  331.18  482.64  827.65    0.90    2.34    6.16   23.25    0.00
   154  20 ORCDSSDT    .182E+01   77.00   92.00    3.73    0.00   94.84    2.12    0.20 1665.70  435.79  438.44  761.40    0.17    5.67    0.03   22.96    0.00
   155  20 ORCDZSDT    .714E+00   83.00  110.50    2.20    0.00   69.70    2.05    0.20 1665.70  571.22  277.18  792.49    0.13    2.72    0.03   22.70    0.00
   156  20 BERMLGH     .394E+00   73.82  253.40    1.84    0.00  220.13    1.89    0.20 1665.70  715.28  277.90  647.49    4.48    5.67   23.33   16.81   11.72
   157  20 BERMSSDT    .871E+00   81.88   92.00    2.76    0.00  206.50    0.00    0.20 1665.70  771.38  240.01  630.65    1.26    4.32    1.17   10.73    7.48
   158  20 BERMZSDT    .151E+01   86.22  110.50    2.34    0.00  207.86    1.94    0.20 1665.70  829.48  135.44  686.60    1.21    4.82    1.06   12.03    8.39
   159  21 RICEGLH     .426E+00   84.00  107.30    2.97    0.00  133.62    0.00    0.20 1682.86  789.53  281.32  585.93   61.63    9.35    6.84    5.80    2.24
   160  21 RICEZSDT    .894E+00   84.00  110.50    2.24    0.00  164.88    0.00    0.20 1682.86  711.95  298.08  642.70    4.74    4.09    2.05    5.78    2.24
   161  21 FRSTGLH     .309E+01   79.00  107.30    4.39    0.00    0.00    0.00    0.20 1682.86  667.15  423.16  561.99    2.89    3.06    0.44   25.89    0.00
   162  21 FRSTZSDT    .280E+01   79.00  110.50    2.89    0.00    0.00    0.00    0.20 1682.86  613.52  455.21  575.29    0.18    2.00    0.04   23.20    0.00
   163  21 BERMGLH     .342E+00   86.22  107.30    0.54    0.00  199.80    3.72    0.20 1682.86  910.13  105.01  656.41    2.10    5.67    2.15   14.70   10.26
   164  21 BERMZSDT    .884E+00   86.22  110.50    0.76    0.00  208.39    2.04    0.20 1682.86  852.33  125.04  691.51    0.45    4.97    0.88   12.11    8.45
   165  22 RICEGLH     .268E+01   84.00  107.30    2.11    0.00  129.75    0.00    0.20 1682.86  792.05  275.31  586.35   53.14    5.44    6.51    5.78    2.24
   166  22 RICEZSDT    .765E+00   84.00  110.50    0.70    0.00  164.60    0.00    0.20 1682.86  712.21  296.98  642.92    1.42    3.82    0.79    5.78    2.24
   167  22 FRSTCST     .996E+00   60.00   58.00    5.20    0.00    0.00    0.00    0.20 1682.86  214.53  943.66  494.08    0.53    3.00    0.12   24.64    0.00
   168  22 FRSTGLH     .346E+01   79.00  107.30    4.19    0.00    0.00    0.00    0.20 1682.86  667.43  421.82  562.20    2.82    3.03    0.43   25.88    0.00
   169  22 FRSTSSDT    .986E+00   73.00   92.00    5.65    0.00    0.00    0.00    0.20 1682.86  475.62  639.76  523.76    0.22    2.06    0.04   22.98    0.00
   170  22 ORCDCST     .814E+00   66.00   58.00    5.46    0.00   42.65    1.01    0.20 1682.86  241.17  760.42  663.10    0.86    9.74    0.15   21.22    0.00
   171  22 ORCDSSDT    .177E+00   77.00   92.00    5.24    0.00  101.06    2.07    0.20 1682.86  456.52  430.68  767.75    0.19    7.01    0.04   23.27    0.00
   172  22 BERMGLH     .153E+01   86.22  107.30    0.84    0.00  194.18    2.91    0.20 1682.86  910.33  103.87  655.99    4.17    5.29    2.01   14.00    9.77
   173  22 BERMZSDT    .533E+00   86.22  110.50    0.65    0.00  208.39    2.04    0.20 1682.86  852.32  123.88  691.71    0.38    5.02    1.06   12.11    8.45
   174  23 FRSTGLH     .252E+02   79.00  107.30    7.03    0.00    0.00    0.00    0.20 1699.63  694.09  416.30  561.40    5.08    3.47    0.75   26.25    0.00
   175  23 ORCDGLH     .182E+01   83.00  107.30    4.03    0.00   26.73    0.00    0.20 1699.63  681.94  223.21  780.51    2.61    5.20    0.39   23.31    0.00
   176  23 ORCDSSDT    .105E+01   77.00   92.00    3.01    0.00  106.65    1.04    0.20 1699.63  496.68  416.10  757.85    0.12    5.83    0.03   23.23    0.00
   177  24 RICELGH     .358E+00   73.00  253.40    2.73    0.00  110.84    0.00    0.20 1767.00  614.30  537.70  569.24   43.14    3.31   59.20    5.50    2.13
   178  24 RICEZSDT    .121E+01   84.00  110.50    2.31    0.00  163.20    0.00    0.20 1767.00  749.44  335.59  650.03    5.64    5.21    2.20    5.78    2.24
[...]
   224  29 FRSTSSDT    .172E+01   73.00   92.00    3.54    0.00    0.00    0.00    0.20 1767.00  500.89  686.90  531.36    0.17    1.98    0.03   22.79    0.00
   225  29 FRSTZSDT    .149E+01   79.00  110.50    3.25    0.00    0.00    0.00    0.20 1767.00  644.99  499.27  581.14    0.23    2.15    0.04   22.89    0.00
   226  29 BERMLGH     .933E-01   73.82  253.40    0.89    0.00  230.06    1.71    0.20 1767.00  788.87  293.48  656.55    2.07    5.84   17.36   16.62   11.59
   227  29 BERMSSDT    .884E-01   81.88   92.00    3.60    0.00  207.21    0.00    0.20 1767.00  838.86  266.41  638.06    1.46    7.87    3.03   10.72    7.47
   228  29 BERMZSDT    .600E+00   86.22  110.50    1.31    0.00  209.60    1.01    0.20 1767.00  904.86  148.10  697.76    0.75    5.01    1.22   11.46    7.99
   229  30 RICEGLH     .185E+01   84.00  107.30    0.82    0.00  146.42    0.00    0.20 1874.21  910.98  335.90  595.48   24.14    6.47    4.51    5.63    2.18
   230  30 RICELGH     .175E+01   73.00  253.40    2.40    0.00  103.11    0.00    0.20 1874.21  672.97  588.19  567.85   51.64    5.14   60.61    5.40    2.09
   231  30 RICESSDT    .116E+01   81.00   92.00    3.07    0.00  214.55    0.00    0.20 1874.21  752.85  504.40  575.98    7.36    7.19    2.26    5.68    2.20
   232  30 RICEZSDT    .715E+00   84.00  110.50    2.11    0.00  182.64    0.00    0.20 1874.21  827.92  361.46  651.14    5.21    5.08    1.91    5.65    2.19
   233  30 WWHTGLH     .816E+00   84.00  107.30    5.22    0.00  192.44    0.00    0.20 1874.21  928.32  372.70  546.13   74.38   17.60   24.82    9.01    2.79
   234  30 WWHTLGH     .499E+00   73.00  253.40    3.09    0.00  180.08    0.00    0.20 1874.21  677.29  639.58  516.33   30.59   12.08   68.74    8.79    2.72
   235  30 WWHTSSDT    .122E+01   81.00   92.00    4.32    0.00  204.21    0.00    0.20 1874.21  772.46  534.64  528.54    6.58   12.75    5.90    9.05    2.80
   236  30 WWHTZSDT    .411E+00   84.00  110.50    2.46    0.00  199.08    0.00    0.20 1874.21  856.91  377.66  605.35    3.85    7.78    4.58    8.91    2.76
   237  30 FRSTGLH     .967E+01   79.00  107.30    5.20    0.00    0.00    0.00    0.20 1874.21  772.78  502.48  565.54    5.28    3.64    0.62   25.37    0.00
   238  30 FRSTLGH     .152E+02   60.00  253.40    6.05    0.00    0.00    0.00    0.20 1874.21  424.37  819.72  586.83    2.21    3.13   13.17   27.68    0.00
   239  30 FRSTSSDT    .911E+01   73.00   92.00    5.22    0.00    0.00    0.00    0.20 1874.21  556.84  739.45  529.91    0.36    2.34    0.06   22.97    0.00
   240  30 ORCDGLH     .157E+01   83.00  107.30    5.36    0.00   27.17    0.00    0.20 1874.21  773.55  295.00  786.95    5.08    6.19    0.53   23.10    0.00
   241  30 ORCDLGH     .245E+01   66.00  253.40    5.87    0.00    0.00    0.00    0.20 1874.21  430.14  586.34  831.31    2.30    3.09   12.60   23.46    0.00
   242  30 ORCDSSDT    .126E+01   77.00   92.00    5.29    0.00  100.91    2.10    0.20 1874.21  550.05  520.48  770.88    0.33    7.40    0.06   23.39    0.00
   243  30 BERMGLH     .182E+01   86.22  107.30    2.17    0.00  196.15    2.65    0.20 1874.21 1047.92  149.92  661.19   11.61    6.01    2.84   13.72    9.57
   244  30 BERMLGH     .951E+00   73.82  253.40    1.76    0.00  239.92    1.71    0.20 1874.21  856.76  333.42  654.86    6.11    7.17   26.11   16.43   11.46
   245  30 BERMSSDT    .641E+00   81.88   92.00    3.11    0.00  207.39    0.00    0.20 1874.21  912.02  294.20  642.41    1.69    6.88    1.51   10.76    7.50
   246  31 RICECST     .242E+01   73.00   58.00    2.99    0.00  128.01    0.00    0.20 1682.86  440.97  685.13  518.04   40.20    9.96    4.79    5.36    2.07
   247  31 RICEGLH     .485E+01   84.00  107.30    2.47    0.00  133.62    0.00    0.20 1682.86  789.71  280.96  586.34   67.87    8.87    7.05    5.80    2.24
   248  31 RICESSDT    .392E+01   81.00   92.00    1.82    0.00  185.83    0.00    0.20 1682.86  654.32  423.92  567.09    4.06    4.38    1.52    5.78    2.24
   249  31 RICEZSDT    .789E+01   84.00  110.50    2.17    0.00  164.80    0.00    0.20 1682.86  711.82  298.40  643.06    5.89    4.08    2.36    5.78    2.24
   250  31 FRSTGLH     .282E+02   79.00  107.30    6.42    0.00    0.00    0.00    0.20 1682.86  663.93  428.49  561.89    5.29    3.28    0.69   25.93    0.00
   251  31 FRSTLGH     .990E+01   60.00  253.40    6.37    0.00    0.00    0.00    0.20 1682.86  350.84  705.70  588.77    1.44    2.83   10.28   28.64    0.00
   252  31 FRSTSSDT    .765E+01   73.00   92.00    4.78    0.00    0.00    0.00    0.20 1682.86  477.10  638.07  524.22    0.23    1.99    0.04   22.95    0.00
   253  31 FRSTZSDT    .670E+01   79.00  110.50    4.80    0.00    0.00    0.00    0.20 1682.86  605.82  466.42  574.84    0.33    2.41    0.06   23.36    0.00
   254  31 BERMGLH     .226E+01   86.22  107.30    1.67    0.00  193.84    2.86    0.20 1682.86  910.18  105.77  656.10    8.66    5.24    2.51   13.87    9.68
   255  31 BERMSSDT    .204E+01   81.88   92.00    1.85    0.00  206.69    0.00    0.20 1682.86  797.85  225.50  636.79    1.00    4.29    0.83   10.87    7.58
   256  31 BERMZSDT    .547E+01   86.22  110.50    0.89    0.00  208.39    2.04    0.20 1682.86  852.01  125.48  692.06    0.61    4.84    0.53   12.10    8.44
   257  32 RICEGLH     .180E+00   84.00  107.30    5.70    0.00  138.54    0.00    0.20 1769.53  863.08  302.08  584.04  118.43   19.67    8.81    5.88    2.27
   258  32 RICELGH     .890E+00   73.00  253.40    2.82    0.00   99.65    0.00    0.20 1769.53  649.13  520.25  559.41   52.42    5.49   61.36    5.64    2.18
   259  32 FRSTGLH     .278E+01   79.00  107.30    6.20    0.00    0.00    0.00    0.20 1769.53  742.36  437.45  559.69    3.89    3.61    0.64   25.92    0.00
   260  32 FRSTLGH     .339E+01   60.00  253.40    5.44    0.00    0.00    0.00    0.20 1769.53  422.55  716.58  590.48    1.25    2.96    9.62   28.57    0.00
   261  32 ORCDGLH     .610E+00   83.00  107.30    4.78    0.00   20.17    0.00    0.20 1769.53  733.73  239.01  782.25    2.89    5.19    0.44   23.18    0.00
   262  32 ORCDLGH     .351E+00   66.00  253.40    3.60    0.00    0.00    0.00    0.20 1769.53  455.58  442.64  842.68    0.88    2.01    6.69   23.52    0.00
   263  33 RICELGH     .638E+00   73.00  253.40    2.54    0.00  103.11    0.00    0.20 1874.21  672.39  588.75  568.42   48.34    5.21   60.17    5.40    2.09
   264  33 RICESSDT    .133E+01   81.00   92.00    2.07    0.00  216.19    0.00    0.20 1874.21  757.73  496.85  577.82    4.94    4.57    1.74    5.66    2.19
   265  33 RICEZSDT    .309E+00   84.00  110.50    2.22    0.00  182.83    0.00    0.20 1874.21  825.51  364.67  651.48    5.08    6.81    1.88    5.67    2.19
   266  33 FRSTGLH     .569E+01   79.00  107.30    5.22    0.00    0.00    0.00    0.20 1874.21  772.47  502.50  566.29    4.94    3.64    0.59   25.38    0.00
   267  33 FRSTLGH     .487E+01   60.00  253.40    4.52    0.00    0.00    0.00    0.20 1874.21  434.28  806.37  588.45    1.51    2.88    9.81   27.48    0.00
   268  33 FRSTZSDT    .319E+01   79.00  110.50    4.34    0.00    0.00    0.00    0.20 1874.21  708.64  546.33  579.23    0.38    2.77    0.07   23.15    0.00
   269  33 ORCDGLH     .106E+01   83.00  107.30    4.12    0.00   27.20    0.00    0.20 1874.21  775.87  291.18  788.06    3.73    5.74    0.43   23.08    0.00
   270  33 ORCDLGH     .637E+00   66.00  253.40    3.30    0.00    0.00    0.00    0.20 1874.21  479.33  525.51  833.93    1.24    2.05    7.98   23.01    0.00
   271  33 ORCDSSDT    .902E+00   77.00   92.00    1.80    0.00  108.95    2.13    0.20 1874.21  572.28  488.26  775.43    0.11    2.61    0.02   23.35    0.00
   272  33 BERMGLH     .336E+00   86.22  107.30    3.01    0.00  190.06    1.78    0.20 1874.21 1044.97  155.37  661.00   14.08    8.50    3.70   13.00    9.07
   273  33 BERMLGH     .285E+00   73.82  253.40    2.22    0.00  230.11    0.72    0.20 1874.21  852.88  339.35  654.76    6.68    7.93   27.59   16.09   11.22
   274  33 BERMSSDT    .553E+00   81.88   92.00    2.17    0.00  207.47    0.00    0.20 1874.21  916.74  286.36  644.77    1.17    4.80    1.42   10.77    7.51
   275  34 RICEGLH     .567E+00   84.00  107.30    4.43    0.00  134.92    0.00    0.20 1769.53  864.27  298.70  585.21  105.72   17.64    8.51    5.86    2.27
   276  34 RICEZSDT    .330E+00   84.00  110.50    3.56    0.00  143.00    0.00    0.20 1769.53  783.39  316.04  642.22    7.63    9.21    2.71    5.85    2.26
   277  34 WWHTGLH     .422E+00   84.00  107.30    5.87    0.00  192.42    0.00    0.20 1769.53  892.95  317.29  534.98   68.65   17.54   26.33    9.22    2.85
   278  34 WWHTZSDT    .723E+00   84.00  110.50    3.82    0.00  192.80    0.00    0.20 1769.53  815.65  331.12  593.82    5.70   12.18    6.64    9.16    2.83
   279  34 FRSTGLH     .134E+02   79.00  107.30    8.01    0.00    0.00    0.00    0.20 1769.53  739.24  441.05  560.52    5.93    3.78    0.86   25.95    0.00
   280  34 FRSTZSDT    .174E+01   79.00  110.50    6.00    0.00    0.00    0.00    0.20 1769.53  680.11  480.27  572.81    0.35    2.81    0.07   23.55    0.00
   281  35 RICEGLH     .613E+00   84.00  107.30    3.50    0.00  150.01    0.00    0.20 1846.12  922.20  309.90  591.39   89.28   18.64    7.71    5.91    2.29
   282  35 RICELGH     .153E+01   73.00  253.40    3.07    0.00   95.72    0.00    0.20 1846.12  681.90  561.75  565.20   62.71    7.97   62.64    5.76    2.23
   283  35 RICEZSDT    .559E+00   84.00  110.50    1.80    0.00  160.83    0.00    0.20 1846.12  844.58  320.46  650.07    4.39    5.44    1.87    5.86    2.27
   284  35 FRSTGLH     .168E+02   79.00  107.30    6.29    0.00    0.00    0.00    0.20 1846.12  792.89  453.81  569.00    5.40    3.83    0.78   26.19    0.00
   285  35 FRSTLGH     .540E+01   60.00  253.40    5.15    0.00    0.00    0.00    0.20 1846.12  463.00  742.42  599.31    1.40    3.08   10.47   28.52    0.00
   286  35 FRSTSSDT    .433E+01   73.00   92.00    6.45    0.00    0.00    0.00    0.20 1846.12  585.18  686.52  529.81    0.33    2.54    0.07   23.52    0.00
   287  35 ORCDCST     .141E+01   66.00   58.00    3.11    0.00   71.51    1.01    0.20 1846.12  333.34  802.61  683.33    0.66   11.69    0.13   22.17    0.00
   288  35 ORCDGLH     .349E+00   83.00  107.30    3.86    0.00   26.94    0.00    0.20 1846.12  794.72  235.09  798.79    2.49    4.29    0.38   23.76    0.00
   289  35 ORCDSSDT    .549E+00   77.00   92.00    3.86    0.00  101.46    2.04    0.20 1846.12  587.56  450.02  774.89    0.18    4.22    0.04   23.61    0.00
   290  36 FRSTGLH     .150E+02   79.00  107.30    5.08    0.00    0.00    0.00    0.20 1582.98  619.55  375.49  560.27    3.31    2.96    0.52   26.39    0.00
   291  36 ORCDGLH     .198E+01   83.00  107.30    3.82    0.00   20.30    0.00    0.20 1582.98  598.92  191.14  780.81    2.34    4.33    0.34   23.60    0.00
   292  37 RICEGLH     .181E+01   84.00  107.30    3.05    0.00  133.22    0.00    0.20 1582.98  734.09  243.01  581.82   71.80    9.40    7.38    6.01    2.33
   293  37 RICESSDT    .618E+00   81.00   92.00    2.40    0.00  168.67    0.00    0.20 1582.98  609.56  375.88  562.40    4.33    5.19    1.77    5.97    2.31
   294  37 RICEZSDT    .611E+00   84.00  110.50    2.49    0.00  156.34    0.00    0.20 1582.98  655.59  259.23  640.44    4.89    4.87    2.09    6.06    2.35
   295  37 FRSTGLH     .291E+02   79.00  107.30    6.32    0.00    0.00    0.00    0.20 1582.98  617.63  377.08  560.60    4.48    3.08    0.66   26.42    0.00
   296  37 FRSTSSDT    .450E+01   73.00   92.00    4.34    0.00    0.00    0.00    0.20 1582.98  449.85  570.02  521.38    0.17    1.86    0.04   23.28    0.00
   297  38 FRSTGLH     .235E+01   79.00  107.30    3.54    0.00    0.00    0.00    0.20 1582.98  622.03  370.69  560.27    1.94    2.79    0.34   26.34    0.00
   298  38 FRSTQSH     .429E+01   73.00  112.80    5.08    0.00    0.00    0.00    0.20 1582.98  491.78  507.18  548.69    2.15    2.23    0.36   25.63    0.00
   299  38 WATRGLH     .760E+00   92.00  107.30    3.55    0.00    0.00    0.00    0.20 1582.98    0.00    0.00 1188.40    0.00    0.00    0.00    0.00    0.00
   300  38 WATRQSH     .344E+00   92.00  112.80    1.71    0.00    0.00    0.00    0.20 1582.98    0.00    0.00 1188.40    0.00    0.00    0.00    0.00    0.00



                AVE MONTHLY BASIN VALUES
                   SNOW                      WATER               SED
  MON     RAIN     FALL   SURF Q    LAT Q    YIELD       ET    YIELD      PET
          (MM)     (MM)     (MM)     (MM)     (MM)     (MM)   (T/HA)     (MM)
    1    55.20     0.00    11.38     5.01    24.11    15.94     0.11    47.01
    2    77.35     0.00    15.14     8.31    32.70    20.50     1.39    46.42
    3   119.30     0.00    29.29    12.96    59.06    37.14     0.84    61.84
    4   146.50     0.00    41.14    14.78    80.79    58.09     0.54    79.45
    5   239.20     0.00    86.63    19.63   139.09    74.80     1.04    93.62
    6   278.52     0.00   108.76    26.34   176.65    78.75     0.66    98.40
    7   221.12     0.00    84.13    18.59   153.29    81.92     0.33   147.62
    8   340.54     0.00   158.65    26.65   234.89    67.91     0.62   132.60
    9   170.80     0.00    75.37    20.01   149.04    55.58     0.38   115.42
   10    61.78     0.00    22.87     7.88    75.45    37.36     0.14    95.67
   11    45.46     0.00     8.07     4.34    35.51    26.48     0.07    66.25
   12    41.41     0.00     6.10     4.42    22.60    20.48     0.04    53.48

     AVE ANNUAL BASIN STRESS DAYS
               WATER STRESS DAYS =     1.01
               TEMPERATURE STRESS DAYS =    56.45
               NITROGEN STRESS DAYS =    19.99
               PHOSPHORUS STRESS DAYS =     7.17
1
    SWAT Jun 01 2011    VER 2009/Rev. 481                                           

    General Input/Output section (file.cio):                                        
    2022/4/11 0:00:00 ARCGIS-SWAT interface AV                                      
                                                                                    
         AVE ANNUAL BASIN VALUES

              PRECIP =   1795.2 MM
              SNOW FALL =    0.00 MM
              SNOW MELT =     0.00 MM
              SUBLIMATION =     0.00 MM
              SURFACE RUNOFF Q =   647.11 MM
              LATERAL SOIL Q =  168.70 MM
              TILE Q =     0.00 MM
              GROUNDWATER (SHAL AQ) Q =   369.81 MM
              REVAP (SHAL AQ => SOIL/PLANTS) =   16.80 MM
              DEEP AQ RECHARGE =    20.35 MM
              TOTAL AQ RECHARGE =  406.93 MM
              TOTAL WATER YLD =  1182.30 MM
              PERCOLATION OUT OF SOIL =  404.09 MM
              ET =    574.4 MM
              PET =   1036.6MM
              TRANSMISSION LOSSES =     3.31 MM
              SEPTIC INFLOW =       0.00 MM
              TOTAL SEDIMENT LOADING =     6.112 T/HA
              POND BUDGET
                   EVAPORATION =    0.000 MM
                   SEEPAGE =    0.000 MM
                   RAINFALL ON POOL =   0.000 MM
                   INFLOW
                        WATER =    0.000 MM
                        SEDIMENT =    0.000 T/HA
                   OUTFLOW
                        WATER =    0.000 MM
                        SEDIMENT =    0.000 T/HA
              RESERVOIR BUDGET
                   EVAPORATION =    0.000 MM
                   SEEPAGE =    0.000 MM
                   RAINFALL ON RESERVOIR =    0.000 MM
                   INFLOW
                        WATER =    0.000 MM
                        SEDIMENT =    0.000 T/HA
                   OUTFLOW
                        WATER =    0.000 MM
                        SEDIMENT =    0.000 T/HA
              YIELD LOSS FROM PONDS
                   WATER =   0.000 MM
                   SEDIMENT =   0.000 T/HA
              YIELD LOSS FROM RESERVOIRS
                   WATER =   0.000 MM
                   SEDIMENT =   0.000 T/HA
1
    SWAT Jun 01 2011    VER 2009/Rev. 481                                           

    General Input/Output section (file.cio):                                        
    2022/4/11 0:00:00 ARCGIS-SWAT interface AV                                      
                                                                                    
              AVE ANNUAL BASIN VALUES


              NUTRIENTS
                   ORGANIC N =     5.454 (KG/HA)
                   ORGANIC P =     0.730 (KG/HA)
                   NO3 YIELD (SQ) =     2.120 (KG/HA)
                   NO3 YIELD (SSQ) =    1.883 (KG/HA)
                   SOL P YIELD =    0.154 (KG/HA)
                   NO3 LEACHED =    30.532 (KG/HA)
                   P LEACHED =     0.223 (KG/HA)
                   N UPTAKE =    24.019 (KG/HA)
                   P UPTAKE =    3.657 (KG/HA)
                   NO3 YIELD (GWQ) =    26.475 (KG/HA)
                   ACTIVE TO SOLUTION P FLOW =        -0.516 (KG/HA)
                   ACTIVE TO STABLE P FLOW =        -0.128 (KG/HA)
                   N FERTILIZER APPLIED =    26.105 (KG/HA)
                   P FERTILIZER APPLIED =     0.000 (KG/HA)
                   N FIXATION =     0.000 (KG/HA)
                   DENITRIFICATION =     0.000 (KG/HA)
                   HUMUS MIN ON ACTIVE ORG N =     5.835 (KG/HA)
                   ACTIVE TO STABLE ORG N =    -2.811 (KG/HA)
                   HUMUS MIN ON ACTIVE ORG P =    1.005 (KG/HA)
                   MIN FROM FRESH ORG N =   13.294 (KG/HA)
                   MIN FROM FRESH ORG P =    2.264 (KG/HA)
                   NO3 IN RAINFALL =    17.902 (KG/HA)
                   INITIAL NO3 IN SOIL =      50.873 (KG/HA)
                   FINAL NO3 IN SOIL =         7.607 (KG/HA)
                   INITIAL ORG N IN SOIL =    5512.191 (KG/HA)
                   FINAL ORG N IN SOIL =      5320.753 (KG/HA)
                   INITIAL MIN P IN SOIL =     617.036 (KG/HA)
                   FINAL MIN P IN SOIL =       589.570 (KG/HA)
                   INITIAL ORG P IN SOIL =     675.243 (KG/HA)
                   FINAL ORG P IN SOIL =     647.837 (KG/HA)
                   NO3 IN FERT =    26.105 (KG/HA)
                   AMMONIA IN FERT =     0.000 (KG/HA)
                   ORG N IN FERT =     0.000 (KG/HA)
                   MINERAL P IN FERT =     0.121 (KG/HA)
                   ORG P IN FERT =     0.000 (KG/HA)
                   N REMOVED IN YIELD =     7.288 (KG/HA)
                   P REMOVED IN YIELD =     0.734 (KG/HA)
                   AMMONIA VOLATILIZATION =     0.000 (KG/HA)
                   AMMONIA NITRIFICATION =      0.000 (KG/HA)
                   NO3 EVAP-LAYER 2 TO 1 =    3.493

                   DIE-GRO P Q =       0.0 (No/HA)
                   DIE-GRO LP Q =       0.0 (No/HA)
                   DIE-GRO P SED =      0.0 (No/HA)
                   DIE-GRO LP SED =      0.0 (No/HA)
                   BACT P RUNOFF =      0.0 (No/HA)
                   BACT LP RUNOFF =      0.0 (No/HA)
                   BACT P SEDIMENT =      0.0 (No/HA)
                   BACT LP SEDIMENT =      0.0 (No/HA)
                   BACT P INCORP =      0.0 (No/HA)
                   BACT LP INCORP =      0.0 (No/HA)

                   NITRATE SEPTIC =         0.00 (kg/ha)
                   AMMONIA SEPTIC =         0.00 (kg/ha)
                   ORG N SEPTIC =         0.00 (kg/ha)
                   FRESH ORGN SEPTIC =         0.00 (kg/ha)
                   ORG P SEPTIC =         0.00 (kg/ha)
                   FRESH ORGP SEPTIC =         0.00 (kg/ha)
                   SOL P SEPTIC =         0.00 (kg/ha)
                   BOD SEPTIC =         0.00 (kg/ha)
