1
    SWAT Jun 01 2011    VER 2009/Rev. 481                                                                0/ 0/   0      0: 0: 0

    General Input/Output section (file.cio):                                        
    2022/4/11 0:00:00 ARCGIS-SWAT interface AV                                      
                                                                                    


       SUB      GIS  MON   AREAkm2  PRECIPmm SNOMELTmm     PETmm      ETmm      SWmm    PERCmm    SURQmm    GW_Qmm    WYLDmm  SYLDt/ha ORGNkg/ha ORGPkg/haNSURQkg/ha SOLPkg/ha SEDPkg/ha LAT Q(mm)LATNO3kg/hGWNO3kg/haCHOLAkg/haCBODUkg/ha DOXQkg/ha
BIGSUB   1        0 1994.18150E+02  2160.385     0.000   988.138   744.736    83.920   346.656   876.884   315.830  1372.578    72.357    57.685     7.066     2.594     0.054     2.663   179.863     4.222    34.635 .00000E+00 0.000E+00 0.000E+00
BIGSUB   2        0 1994.31689E+02  2156.468     0.000   986.606   741.696    84.930   348.424   891.383   318.370  1372.589    65.837    31.473     3.855     2.602     0.059     2.564   162.837     3.882    33.517 .00000E+00 0.000E+00 0.000E+00
BIGSUB   3        0 1994.14302E+01  2172.885     0.000   991.337   717.879    89.043   320.708   978.582   287.145  1394.297    60.397     3.410     0.464     3.461     0.088     2.454   128.569     4.611    58.206 .00000E+00 0.000E+00 0.000E+00
BIGSUB   4        0 1994.27925E+02  2151.384     0.000   984.298   742.927    85.283   351.231   905.776   321.720  1369.035    53.754    21.551     2.640     2.660     0.071     2.264   141.539     3.422    40.303 .00000E+00 0.000E+00 0.000E+00
BIGSUB   5        0 1994.13315E+02  2172.885     0.000  1031.710   771.650    89.267   315.665   932.906   287.955  1375.763    57.572     2.882     0.353     2.606     0.066     2.389   154.903     3.734    29.156 .00000E+00 0.000E+00 0.000E+00
BIGSUB   6        0 1994.18195E+02  2042.314     0.000  1033.709   746.399    74.925   359.620   763.634   326.175  1257.950    59.337     2.644     0.361     2.326     0.076     2.159   168.141     5.031    42.212 .00000E+00 0.000E+00 0.000E+00
BIGSUB   7        0 1994.56151E+02  2163.446     0.000   988.434   744.047    83.163   310.866   925.673   285.165  1375.229    74.284     3.370     0.413     2.727     0.060     2.802   164.391     4.277    32.093 .00000E+00 0.000E+00 0.000E+00
BIGSUB   8        0 1994.65131E+01  2062.515     0.000  1043.334   742.204    84.027   337.943   890.708   304.105  1265.109    29.692     1.972     0.291     3.106     0.112     1.450    70.295     3.153    79.440 .00000E+00 0.000E+00 0.000E+00
BIGSUB   9        0 1994.23969E+01  2062.515     0.000  1043.243   757.943   166.012   532.094   690.088   482.885  1248.192    13.434    58.710     7.229     2.363     0.106     0.728    75.220     0.712    78.543 .00000E+00 0.000E+00 0.000E+00
BIGSUB  10        0 1994.17371E+02  2051.294     0.000  1038.051   689.266    61.537   430.573   593.252   386.799  1315.953    44.197    13.035     1.636     1.831     0.061     1.621   335.902     5.291    54.139 .00000E+00 0.000E+00 0.000E+00
BIGSUB  11        0 1994.29789E+02  2395.383     0.000  1032.578   782.437    94.155   411.489  1057.351   374.177  1538.043    48.853     2.575     0.317     3.335     0.102     2.132   106.514     2.679    67.021 .00000E+00 0.000E+00 0.000E+00
BIGSUB  12        0 1994.21222E+02  2164.080     0.000  1080.163   781.280    98.924   388.291   799.738   348.313  1327.114    41.744    18.067     2.193     2.727     0.090     1.715   179.063     4.561    70.388 .00000E+00 0.000E+00 0.000E+00
BIGSUB  13        0 1994.68669E+02  2336.180     0.000   959.979   722.600   131.739   555.523   759.825   502.119  1519.969    42.901   169.524    20.785     2.267     0.083     1.528   258.025     5.516    77.105 .00000E+00 0.000E+00 0.000E+00
BIGSUB  14        0 1994.50987E+02  2769.783     0.000  1006.079   736.723   141.129   630.517  1128.183   569.055  1918.061    42.781    71.138     8.764     3.348     0.145     1.192   220.822     4.149    83.088 .00000E+00 0.000E+00 0.000E+00
BIGSUB  15        0 1994.80486E+01  2062.515     0.000  1043.413   742.894   136.933   435.547   706.692   392.700  1268.785    29.840    57.114     7.039     2.302     0.092     1.392   169.393     3.230    75.670 .00000E+00 0.000E+00 0.000E+00
BIGSUB  16        0 1994.17014E+02  2062.515     0.000  1043.487   747.015    75.060   399.733   742.489   362.570  1264.856    27.457     6.744     0.852     2.371     0.094     1.293   159.797     3.707    82.584 .00000E+00 0.000E+00 0.000E+00
BIGSUB  17        0 1994.35608E+02  2293.210     0.000  1024.400   763.701   119.409   504.541   796.229   457.616  1458.149    33.603    33.055     4.042     2.526     0.100     1.436   204.304     3.585    66.336 .00000E+00 0.000E+00 0.000E+00
BIGSUB  18        0 1994.25428E+02  2155.959     0.000  1076.020   796.236    81.457   327.628   875.561   295.428  1309.820    65.180     3.031     0.397     2.830     0.076     2.451   138.831     4.100    50.849 .00000E+00 0.000E+00 0.000E+00
BIGSUB  19        0 1994.35900E+02  2136.088     0.000  1003.620   779.328   152.124   439.306   677.029   397.433  1282.563    46.262    81.636    10.011     2.166     0.077     1.936   208.101     3.327    43.521 .00000E+00 0.000E+00 0.000E+00
BIGSUB  20        0 1994.33902E+02  2048.693     0.000  1019.672   717.881   124.704   442.227   698.413   390.559  1242.257    20.293    73.299     9.002     2.383     0.099     1.093   153.285     3.708    92.383 .00000E+00 0.000E+00 0.000E+00
BIGSUB  21        0 1994.82331E+01  1857.237     0.000  1059.948   757.830    85.684   284.832   746.220   254.777  1052.862    27.950     1.823     0.271     2.668     0.100     1.346    51.865     1.969    67.419 .00000E+00 0.000E+00 0.000E+00
BIGSUB  22        0 1994.11681E+02  1854.374     0.000  1058.423   696.328    83.511   259.634   724.451   228.533  1105.206    42.489     2.580     0.445     2.933     0.091     1.880   152.221     2.540    82.578 .00000E+00 0.000E+00 0.000E+00
BIGSUB  23        0 1994.27679E+02  1978.385     0.000  1049.170   750.352    74.830   244.071   849.855   220.942  1203.560    79.453     3.383     0.414     2.511     0.065     2.823   132.762     4.405    35.639 .00000E+00 0.000E+00 0.000E+00
BIGSUB  24        0 1994.23037E+02  2128.102     0.000  1009.373   778.868   137.781   455.650   656.369   409.976  1278.377    33.926    77.171     9.464     1.936     0.084     1.581   212.032     2.938    54.337 .00000E+00 0.000E+00 0.000E+00
BIGSUB  25        0 1994.20024E+02  2144.524     0.000  1016.566   751.421   165.133   509.920   724.081   453.734  1289.423    24.182    65.880     8.091     2.578     0.105     1.304   111.608     2.522    70.048 .00000E+00 0.000E+00 0.000E+00
BIGSUB  26        0 1994.17810E+02  1968.826     0.000  1044.076   741.602    75.155   297.956   824.955   270.664  1200.947    36.781     2.056     0.252     2.397     0.097     1.704   105.328     3.285    42.338 .00000E+00 0.000E+00 0.000E+00
BIGSUB  27        0 1994.51552E+02  1856.213     0.000  1044.929   749.212   100.265   288.585   667.604   261.898  1081.266    57.931    23.708     2.910     2.076     0.069     2.254   151.764     4.206    46.031 .00000E+00 0.000E+00 0.000E+00
BIGSUB  28        0 1994.42660E+02  1992.891     0.000  1056.703   752.236    75.295   273.850   828.023   249.041  1202.314    64.233     2.882     0.353     2.442     0.076     2.401   125.250     4.208    41.602 .00000E+00 0.000E+00 0.000E+00
BIGSUB  29        0 1994.11482E+02  2127.041     0.000  1008.381   755.705   149.807   470.011   678.688   416.613  1298.291    16.138    55.610     6.813     2.430     0.106     0.978   202.990     2.236    71.820 .00000E+00 0.000E+00 0.000E+00
BIGSUB  30        0 1994.49984E+02  2321.823     0.000  1001.962   742.706   139.618   466.400   880.345   419.015  1499.750    47.561    65.685     8.053     3.057     0.100     2.011   200.390     3.398    66.682 .00000E+00 0.000E+00 0.000E+00
BIGSUB  31        0 1994.79636E+02  1851.107     0.000  1056.719   735.831    92.712   295.816   696.354   262.515  1072.820    49.096    11.643     1.487     2.472     0.081     1.903   113.951     3.152    75.699 .00000E+00 0.000E+00 0.000E+00
BIGSUB  32        0 1994.80153E+01  1856.212     0.000  1044.841   750.105   128.200   334.423   601.573   301.737  1088.180    50.081    67.991     8.345     1.871     0.071     1.950   184.871     3.891    47.581 .00000E+00 0.000E+00 0.000E+00
BIGSUB  33        0 1994.19738E+02  2279.762     0.000   984.273   747.034   133.802   451.431   925.998   407.847  1483.069    43.856    42.686     5.261     2.921     0.101     1.861   149.224     2.643    71.385 .00000E+00 0.000E+00 0.000E+00
BIGSUB  34        0 1994.16786E+02  1856.213     0.000  1045.477   724.857    82.023   247.035   733.698   221.501  1091.114    88.649     4.071     0.480     2.530     0.061     2.912   135.915     5.376    40.573 .00000E+00 0.000E+00 0.000E+00
BIGSUB  35        0 1994.32688E+02  1820.430     0.000  1005.789   709.673   102.475   307.053   683.541   277.708  1136.289    60.583    30.162     3.709     1.991     0.065     2.151   175.040     3.994    43.146 .00000E+00 0.000E+00 0.000E+00
BIGSUB  36        0 1994.22173E+02  1276.781     0.000   809.647   574.786    84.735   234.755   580.738   211.721   900.372    41.826     2.146     0.263     1.242     0.043     1.785   107.912     2.654    23.546 .00000E+00 0.000E+00 0.000E+00
BIGSUB  37        0 1994.42742E+02  1428.697     0.000   906.154   630.043    86.251   259.603   559.414   232.261   907.942    57.904     2.573     0.324     1.369     0.044     2.113   116.267     3.304    36.650 .00000E+00 0.000E+00 0.000E+00
BIGSUB  38        0 1994.13046E+02   988.477     0.000   678.884   478.663   101.674   304.031   487.666   275.179   899.901    17.109     1.040     0.127     0.672     0.032     0.860   137.056     1.193    19.869 .00000E+00 0.000E+00 0.000E+00
BIGSUB   1        0 1995.18150E+02  1452.302     0.000   978.027   546.392    45.364   306.519   464.029   277.986   900.983     1.272     2.180     0.269     1.316     0.035     0.069   158.967     1.887    14.608 .00000E+00 0.000E+00 0.000E+00
BIGSUB   2        0 1995.31689E+02  1449.669     0.000   976.506   526.623    48.843   319.112   479.001   290.547   915.158     1.118     1.173     0.145     1.354     0.013     0.061   145.610     0.774     6.622 .00000E+00 0.000E+00 0.000E+00
BIGSUB   3        0 1995.14302E+01  1460.705     0.000   981.172   530.411    53.673   292.944   535.655   268.465   919.060     7.525     0.832     0.177     1.985     0.042     0.340   114.940     1.702    25.303 .00000E+00 0.000E+00 0.000E+00
BIGSUB   4        0 1995.27925E+02  1446.251     0.000   974.239   541.546    45.968   317.744   485.585   289.834   902.061     0.901     0.782     0.097     1.383     0.041     0.054   126.642     0.842    16.519 .00000E+00 0.000E+00 0.000E+00
BIGSUB   5        0 1995.13315E+02  1460.705     0.000  1021.166   577.226    52.530   291.043   504.300   264.256   906.028     0.958     0.127     0.017     1.378     0.051     0.060   137.472     1.924    13.558 .00000E+00 0.000E+00 0.000E+00
BIGSUB   6        0 1995.18195E+02  1440.619     0.000  1027.792   512.913    63.151   302.346   485.399   274.708   899.972     4.189     0.238     0.067     1.387     0.027     0.125   139.865     1.536     8.564 .00000E+00 0.000E+00 0.000E+00
BIGSUB   7        0 1995.56151E+02  1454.359     0.000   978.326   534.804    47.410   287.949   499.606   263.430   909.288     1.166     0.146     0.020     1.438     0.043     0.066   146.252     1.849    11.543 .00000E+00 0.000E+00 0.000E+00
BIGSUB   8        0 1995.65131E+01  1454.870     0.000  1037.349   585.887    58.740   262.115   551.692   240.856   851.056     3.557     0.435     0.109     2.059     0.059     0.185    58.508     2.621    45.911 .00000E+00 0.000E+00 0.000E+00
BIGSUB   9        0 1995.23969E+01  1454.869     0.000  1037.272   577.693   159.006   393.428   411.976   365.543   835.504     2.646     8.011     1.025     1.588     0.057     0.150    57.984     0.312    27.747 .00000E+00 0.000E+00 0.000E+00
BIGSUB  10        0 1995.17371E+02  1446.954     0.000  1032.122   494.840    56.475   315.846   378.549   293.264   917.437     4.439     1.744     0.256     1.122     0.028     0.148   245.623     2.568    25.575 .00000E+00 0.000E+00 0.000E+00
BIGSUB  11        0 1995.29789E+02  1491.749     0.000  1063.446   580.741    51.047   326.271   520.582   303.645   911.070     0.726     0.098     0.015     1.360     0.048     0.049    86.843     1.060    36.792 .00000E+00 0.000E+00 0.000E+00
BIGSUB  12        0 1995.21222E+02  1623.392     0.000  1089.701   584.148    79.997   352.626   521.102   326.020  1008.609     3.881     2.230     0.253     2.057     0.060     0.177   161.487     2.879    37.175 .00000E+00 0.000E+00 0.000E+00
BIGSUB  13        0 1995.68669E+02  1508.287     0.000   963.797   591.370    74.227   420.505   344.837   396.600   939.966     7.305    12.463     1.587     0.895     0.043     0.269   198.529     3.203    43.114 .00000E+00 0.000E+00 0.000E+00
BIGSUB  14        0 1995.50987E+02  1646.485     0.000  1033.217   586.156    88.601   455.333   476.508   432.388  1073.787     6.958     6.810     0.900     1.233     0.065     0.223   164.891     2.432    39.773 .00000E+00 0.000E+00 0.000E+00
BIGSUB  15        0 1995.80486E+01  1454.870     0.000  1037.446   567.678   129.102   320.380   423.771   296.091   850.466     3.785     7.792     1.008     1.481     0.051     0.195   130.605     1.929    31.303 .00000E+00 0.000E+00 0.000E+00
BIGSUB  16        0 1995.17014E+02  1454.870     0.000  1037.531   595.936    50.117   289.904   453.037   264.700   838.198     2.004     0.812     0.127     1.449     0.076     0.094   120.462     2.465    53.728 .00000E+00 0.000E+00 0.000E+00
BIGSUB  17        0 1995.35608E+02  1527.581     0.000  1055.519   572.010    77.328   384.568   437.818   357.356   952.430     2.153     3.487     0.421     1.325     0.051     0.117   157.256     1.897    30.759 .00000E+00 0.000E+00 0.000E+00
BIGSUB  18        0 1995.25428E+02  1617.301     0.000  1085.534   562.223    56.800   326.317   598.121   297.832  1030.306     3.538     0.266     0.058     1.916     0.034     0.148   134.353     1.782    22.002 .00000E+00 0.000E+00 0.000E+00
BIGSUB  19        0 1995.35900E+02  1565.381     0.000  1028.150   578.227   103.879   390.882   456.750   363.575   995.819     1.135     3.845     0.480     1.400     0.037     0.083   175.494     1.829    18.689 .00000E+00 0.000E+00 0.000E+00
BIGSUB  20        0 1995.33902E+02  1347.469     0.000  1019.922   563.665    86.810   331.881   355.899   317.737   792.420     2.754     7.728     0.961     1.349     0.059     0.168   118.784     2.052    46.613 .00000E+00 0.000E+00 0.000E+00
BIGSUB  21        0 1995.82331E+01  1421.083     0.000  1051.183   566.772    66.392   292.251   507.084   267.281   827.288     2.472     0.352     0.088     1.780     0.053     0.142    52.923     0.645    27.026 .00000E+00 0.000E+00 0.000E+00
BIGSUB  22        0 1995.11681E+02  1418.893     0.000  1049.689   559.891    59.811   254.042   484.401   233.339   842.526     7.531     0.702     0.211     1.953     0.068     0.375   124.786     2.589    47.200 .00000E+00 0.000E+00 0.000E+00
BIGSUB  23        0 1995.27679E+02  1533.924     0.000  1046.745   547.569    52.845   252.745   604.136   226.231   965.391     1.551     0.173     0.023     1.662     0.022     0.079   135.024     1.848    14.672 .00000E+00 0.000E+00 0.000E+00
BIGSUB  24        0 1995.23037E+02  1519.013     0.000  1030.448   563.477   104.392   395.725   404.969   369.161   950.807     0.965     3.329     0.415     1.080     0.037     0.068   176.677     1.151    22.233 .00000E+00 0.000E+00 0.000E+00
BIGSUB  25        0 1995.20024E+02  1530.736     0.000  1037.813   571.493   126.721   435.740   445.236   414.197   956.021     2.616     8.657     1.066     1.679     0.065     0.163    96.588     1.196    28.798 .00000E+00 0.000E+00 0.000E+00
BIGSUB  26        0 1995.17810E+02  1526.513     0.000  1041.690   572.126    44.746   302.344   568.221   272.351   944.984     0.700     0.091     0.012     1.585     0.034     0.046   104.412     3.100    26.227 .00000E+00 0.000E+00 0.000E+00
BIGSUB  27        0 1995.51552E+02  1396.920     0.000  1049.779   592.641    85.123   257.403   404.111   232.158   774.512     2.050     1.569     0.212     1.186     0.025     0.099   138.243     2.339    21.304 .00000E+00 0.000E+00 0.000E+00
BIGSUB  28        0 1995.42660E+02  1545.171     0.000  1054.279   550.325    51.908   284.998   582.357   256.787   966.629     1.243     0.143     0.019     1.589     0.026     0.067   127.485     1.830    16.289 .00000E+00 0.000E+00 0.000E+00
BIGSUB  29        0 1995.11482E+02  1518.256     0.000  1029.474   552.618   130.489   394.094   414.511   374.089   952.381     1.134     4.019     0.492     1.445     0.054     0.110   163.781     1.112    34.399 .00000E+00 0.000E+00 0.000E+00
BIGSUB  30        0 1995.49984E+02  1559.359     0.000  1024.044   573.009   110.399   379.341   453.241   357.078   973.705     4.584     6.074     0.750     1.613     0.050     0.222   163.385     1.911    30.412 .00000E+00 0.000E+00 0.000E+00
BIGSUB  31        0 1995.79636E+02  1416.393     0.000  1048.018   551.371    82.184   290.616   460.662   268.499   835.343     4.134     1.098     0.192     1.595     0.047     0.226   106.181     1.258    36.820 .00000E+00 0.000E+00 0.000E+00
BIGSUB  32        0 1995.80153E+01  1396.920     0.000  1049.735   578.745   136.443   280.532   349.811   254.363   765.558     4.698     6.710     0.878     1.081     0.031     0.193   161.384     2.353    18.664 .00000E+00 0.000E+00 0.000E+00
BIGSUB  33        0 1995.19738E+02  1531.110     0.000  1006.002   578.526    99.109   374.175   484.610   350.386   960.118     2.080     3.546     0.457     1.540     0.051     0.127   125.122     1.510    34.588 .00000E+00 0.000E+00 0.000E+00
BIGSUB  34        0 1995.16786E+02  1396.920     0.000  1050.345   538.395    68.192   249.702   468.442   224.774   827.102     4.526     0.916     0.104     1.533     0.025     0.161   133.887     1.853    12.294 .00000E+00 0.000E+00 0.000E+00
BIGSUB  35        0 1995.32688E+02  1357.745     0.000  1006.919   522.035    90.619   303.843   412.058   276.121   850.323     4.072     3.430     0.453     1.068     0.033     0.154   162.144     2.144    17.412 .00000E+00 0.000E+00 0.000E+00
BIGSUB  36        0 1995.22173E+02   862.949     0.000   788.386   393.456    43.061   207.490   354.238   184.825   630.165     0.526     0.068     0.009     0.708     0.013     0.033    91.102     1.321     8.535 .00000E+00 0.000E+00 0.000E+00
BIGSUB  37        0 1995.42742E+02   965.626     0.000   882.412   417.489    48.965   231.203   345.553   208.101   653.398     2.043     0.188     0.040     0.919     0.017     0.096    99.745     0.663     9.006 .00000E+00 0.000E+00 0.000E+00
BIGSUB  38        0 1995.13046E+02   668.090     0.000   662.019   341.985    68.048   267.611   301.161   239.777   652.748     0.250     0.037     0.005     0.389     0.013     0.020   111.810     0.179     1.155 .00000E+00 0.000E+00 0.000E+00
BIGSUB   1        0 1996.18150E+02  2032.531     0.000  1015.761   464.286    82.347   341.364   985.599   310.332  1470.012     2.456     4.786     0.593     2.887     0.078     0.153   174.082     2.105    16.020 .00000E+00 0.000E+00 0.000E+00
BIGSUB   2        0 1996.31689E+02  2028.845     0.000  1014.167   451.201    83.598   352.434  1002.492   321.715  1483.501     2.163     2.577     0.322     2.936     0.060     0.135   159.294     1.033     8.073 .00000E+00 0.000E+00 0.000E+00
BIGSUB   3        0 1996.14302E+01  2044.291     0.000  1019.163   481.747    78.436   314.202  1059.885   284.455  1469.747    12.567     1.370     0.342     3.494     0.104     0.584   125.407     1.033     9.640 .00000E+00 0.000E+00 0.000E+00
BIGSUB   4        0 1996.27925E+02  2024.062     0.000  1011.812   462.446    79.341   351.827  1012.262   321.836  1472.730     1.744     1.716     0.215     2.976     0.113     0.118   138.632     1.071    18.390 .00000E+00 0.000E+00 0.000E+00
BIGSUB   5        0 1996.13315E+02  2044.291     0.000  1060.105   505.986    82.894   321.548  1037.035   292.744  1480.949     1.836     0.327     0.045     2.918     0.100     0.128   151.170     2.147    15.391 .00000E+00 0.000E+00 0.000E+00
BIGSUB   6        0 1996.18195E+02  1880.105     0.000  1068.163   601.844     4.085   348.056   814.700   316.692  1285.964     8.199     0.575     0.125     2.227     0.062     0.238   154.572     1.258     8.032 .00000E+00 0.000E+00 0.000E+00
BIGSUB   7        0 1996.56151E+02  2035.411     0.000  1016.132   458.857    77.951   317.971  1030.919   291.793  1483.431     2.300     0.393     0.055     3.060     0.103     0.148   160.719     2.106    13.373 .00000E+00 0.000E+00 0.000E+00
BIGSUB   8        0 1996.65131E+01  1898.702     0.000  1078.245   638.980    19.491   307.394   893.022   279.853  1238.146     7.026     0.863     0.214     2.931     0.108     0.355    65.272     1.120    30.960 .00000E+00 0.000E+00 0.000E+00
BIGSUB   9        0 1996.23969E+01  1898.701     0.000  1078.199   702.148    80.357   468.707   709.734   430.538  1207.139     6.497    14.321     1.849     2.435     0.112     0.334    66.867     0.356    27.810 .00000E+00 0.000E+00 0.000E+00
BIGSUB  10        0 1996.17371E+02  1888.372     0.000  1072.727   567.629     5.997   391.308   659.643   358.364  1312.005     9.214     3.456     0.493     1.850     0.066     0.293   293.998     1.965    23.461 .00000E+00 0.000E+00 0.000E+00
BIGSUB  11        0 1996.29789E+02  1934.493     0.000  1051.036   633.053     4.206   393.068   825.445   361.406  1286.616     1.091     0.206     0.035     2.395     0.114     0.086    99.765     0.693    29.533 .00000E+00 0.000E+00 0.000E+00
BIGSUB  12        0 1996.21222E+02  2049.820     0.000  1095.995   649.278    26.187   417.575   819.995   381.470  1383.228     6.251     3.522     0.442     3.219     0.123     0.293   181.762     2.386    39.744 .00000E+00 0.000E+00 0.000E+00
BIGSUB  13        0 1996.68669E+02  1679.708     0.000   984.142   512.309   108.101   456.699   441.547   417.245  1071.160     8.431    18.153     2.334     1.217     0.073     0.361   212.368     3.012    36.577 .00000E+00 0.000E+00 0.000E+00
BIGSUB  14        0 1996.50987E+02  1946.133     0.000  1008.999   504.373   120.087   564.804   623.981   519.588  1334.798     8.403     9.325     1.261     1.766     0.113     0.342   191.230     1.836    34.271 .00000E+00 0.000E+00 0.000E+00
BIGSUB  15        0 1996.80486E+01  1898.702     0.000  1078.339   668.189    61.149   384.628   732.516   351.193  1234.182     9.112    13.802     1.804     2.289     0.111     0.426   150.474     1.351    27.707 .00000E+00 0.000E+00 0.000E+00
BIGSUB  16        0 1996.17014E+02  1898.702     0.000  1078.417   629.254     8.521   360.636   776.630   328.598  1246.950     3.974     1.584     0.240     2.319     0.180     0.186   141.722     1.578    41.892 .00000E+00 0.000E+00 0.000E+00
BIGSUB  17        0 1996.35608E+02  1775.744     0.000  1049.773   637.793    34.603   402.132   584.275   367.446  1120.302     3.021     5.005     0.609     2.203     0.093     0.179   168.581     1.615    31.102 .00000E+00 0.000E+00 0.000E+00
BIGSUB  18        0 1996.25428E+02  2042.128     0.000  1091.803   628.342     5.387   370.631   917.408   337.443  1401.547     5.600     0.628     0.130     2.753     0.077     0.244   146.696     1.219    16.639 .00000E+00 0.000E+00 0.000E+00
BIGSUB  19        0 1996.35900E+02  1832.456     0.000  1030.282   705.072    57.834   395.011   570.111   360.065  1119.105     1.590     5.458     0.682     1.787     0.060     0.126   188.929     1.458    13.834 .00000E+00 0.000E+00 0.000E+00
BIGSUB  20        0 1996.33902E+02  1790.994     0.000  1049.544   676.933    51.945   408.971   568.806   372.855  1083.886     5.543    12.447     1.582     2.349     0.122     0.326   142.225     2.414    48.793 .00000E+00 0.000E+00 0.000E+00
BIGSUB  21        0 1996.82331E+01  1880.785     0.000  1056.871   650.186    19.989   346.944   838.687   317.305  1215.124     5.250     0.765     0.187     3.280     0.096     0.286    59.133     0.523    26.144 .00000E+00 0.000E+00 0.000E+00
BIGSUB  22        0 1996.11681E+02  1877.886     0.000  1055.367   615.902    32.115   305.807   800.700   277.740  1231.604    16.616     1.844     0.468     3.331     0.129     0.763   153.165     0.887    27.377 .00000E+00 0.000E+00 0.000E+00
BIGSUB  23        0 1996.27679E+02  1912.351     0.000  1053.245   638.302     0.535   304.844   841.119   277.284  1275.385     2.157     0.344     0.047     2.401     0.066     0.126   156.982     1.313    10.901 .00000E+00 0.000E+00 0.000E+00
BIGSUB  24        0 1996.23037E+02  1636.056     0.000  1035.891   678.354    46.676   371.521   449.960   339.328   966.353     1.596     4.385     0.560     1.188     0.054     0.114   177.065     1.051    15.918 .00000E+00 0.000E+00 0.000E+00
BIGSUB  25        0 1996.20024E+02  1648.681     0.000  1043.271   664.639    82.237   412.181   496.333   377.545   969.211     5.142    12.762     1.588     2.130     0.095     0.312    95.333     1.247    26.642 .00000E+00 0.000E+00 0.000E+00
BIGSUB  26        0 1996.17810E+02  1903.111     0.000  1048.158   632.385     0.456   374.920   800.152   342.132  1266.052     0.991     0.174     0.024     2.277     0.076     0.071   123.768     1.164    14.086 .00000E+00 0.000E+00 0.000E+00
BIGSUB  27        0 1996.51552E+02  2016.852     0.000  1060.936   654.033    26.706   345.234   871.344   316.254  1356.638     4.834     3.889     0.513     2.726     0.107     0.224   169.040     1.646    18.192 .00000E+00 0.000E+00 0.000E+00
BIGSUB  28        0 1996.42660E+02  1926.372     0.000  1060.828   638.125     0.496   345.844   812.294   316.203  1276.813     1.726     0.281     0.039     2.324     0.077     0.106   148.316     1.462    14.257 .00000E+00 0.000E+00 0.000E+00
BIGSUB  29        0 1996.11482E+02  1635.240     0.000  1034.890   671.788    73.907   377.120   458.116   344.466   970.937     1.801     5.038     0.627     2.133     0.074     0.188   168.355     1.234    33.583 .00000E+00 0.000E+00 0.000E+00
BIGSUB  30        0 1996.49984E+02  1950.654     0.000  1027.574   673.098    68.295   426.345   678.719   389.729  1253.622     8.304     8.757     1.135     2.796     0.093     0.401   185.174     1.807    26.936 .00000E+00 0.000E+00 0.000E+00
BIGSUB  31        0 1996.79636E+02  1874.578     0.000  1053.681   641.063    32.722   354.363   776.688   324.475  1224.523     8.909     2.400     0.428     3.098     0.098     0.469   123.360     1.056    33.252 .00000E+00 0.000E+00 0.000E+00
BIGSUB  32        0 1996.80153E+01  2016.852     0.000  1060.910   672.745    60.685   393.884   791.556   360.776  1353.206    12.824    14.839     1.922     2.434     0.088     0.454   200.874     1.357    13.045 .00000E+00 0.000E+00 0.000E+00
BIGSUB  33        0 1996.19738E+02  1915.318     0.000  1009.414   675.602    54.163   417.424   721.250   381.691  1242.012     4.072     5.400     0.724     2.286     0.098     0.249   139.070     0.957    27.826 .00000E+00 0.000E+00 0.000E+00
BIGSUB  34        0 1996.16786E+02  2016.852     0.000  1061.453   619.490     8.651   307.142   957.952   279.330  1393.644     9.669     1.548     0.199     3.735     0.069     0.316   156.362     2.018    16.022 .00000E+00 0.000E+00 0.000E+00
BIGSUB  35        0 1996.32688E+02  1890.610     0.000  1030.207   624.090    25.805   364.003   823.802   332.319  1342.468     8.907     5.867     0.780     2.336     0.084     0.295   186.347     2.131    16.560 .00000E+00 0.000E+00 0.000E+00
BIGSUB  36        0 1996.22173E+02  1163.945     0.000   801.008   468.191     0.096   241.792   597.475   217.341   922.625     0.762     0.134     0.018     1.257     0.034     0.054   107.809     0.614     4.594 .00000E+00 0.000E+00 0.000E+00
BIGSUB  37        0 1996.42742E+02  1302.436     0.000   896.549   511.256     6.009   266.758   579.644   240.077   935.892     4.223     0.455     0.098     1.395     0.043     0.196   116.171     0.734     8.693 .00000E+00 0.000E+00 0.000E+00
BIGSUB  38        0 1996.13046E+02   901.120     0.000   672.525   404.317    16.621   313.327   522.795   283.381   936.871     0.369     0.070     0.009     0.716     0.029     0.032   130.696     0.277     2.314 .00000E+00 0.000E+00 0.000E+00
BIGSUB   1        0 1997.18150E+02  2608.994     0.000   916.851   430.433   108.080   594.826  1239.855   525.080  2038.341     3.070     6.258     0.779     3.623     0.135     0.207   273.406     2.076    17.728 .00000E+00 0.000E+00 0.000E+00
BIGSUB   2        0 1997.31689E+02  2604.262     0.000   915.429   422.048   106.645   605.525  1260.473   535.712  2048.055     2.679     3.407     0.428     3.684     0.125     0.182   251.870     1.748    14.606 .00000E+00 0.000E+00 0.000E+00
BIGSUB   3        0 1997.14302E+01  2624.089     0.000   919.780   463.870   103.131   539.394  1342.265   474.440  2017.272    18.904     2.143     0.566     4.440     0.195     0.766   200.568     1.995    23.205 .00000E+00 0.000E+00 0.000E+00
BIGSUB   4        0 1997.27925E+02  2598.123     0.000   913.299   430.129   105.812   608.330  1276.617   539.354  2035.918     2.157     2.285     0.289     3.755     0.162     0.157   219.946     1.522    19.640 .00000E+00 0.000E+00 0.000E+00
BIGSUB   5        0 1997.13315E+02  2624.088     0.000   957.248   469.831   109.507   557.230  1307.949   493.322  2044.772     2.276     0.514     0.072     3.684     0.158     0.170   243.500     1.543     9.654 .00000E+00 0.000E+00 0.000E+00
BIGSUB   6        0 1997.18195E+02  2370.381     0.000   970.315   492.150    96.715   531.496   994.155   474.059  1697.578    12.370     0.768     0.183     2.910     0.106     0.294   229.364     2.768    18.607 .00000E+00 0.000E+00 0.000E+00
BIGSUB   7        0 1997.56151E+02  2612.690     0.000   917.119   428.495   103.742   549.722  1299.647   489.253  2047.453     2.798     0.612     0.087     3.860     0.160     0.196   258.553     1.818    11.571 .00000E+00 0.000E+00 0.000E+00
BIGSUB   8        0 1997.65131E+01  2393.828     0.000   979.539   596.883    96.614   466.762  1109.173   418.783  1624.514    10.621     1.263     0.321     4.437     0.161     0.466    96.558     3.140    50.459 .00000E+00 0.000E+00 0.000E+00
BIGSUB   9        0 1997.23969E+01  2393.828     0.000   979.514   548.555   206.851   713.414   867.724   636.904  1595.781    10.688    14.336     1.909     3.221     0.168     0.437    91.153     0.638    48.907 .00000E+00 0.000E+00 0.000E+00
BIGSUB  10        0 1997.17371E+02  2380.804     0.000   974.493   488.366    89.619   578.918   770.092   519.784  1711.617    14.214     3.523     0.540     2.288     0.094     0.347   421.740     3.784    35.462 .00000E+00 0.000E+00 0.000E+00
BIGSUB  11        0 1997.29789E+02  2414.548     0.000   970.631   542.582    97.555   577.003  1012.632   518.187  1676.705     1.255     0.300     0.053     3.212     0.159     0.113   145.886     1.215    35.580 .00000E+00 0.000E+00 0.000E+00
BIGSUB  12        0 1997.21222E+02  2275.473     0.000   962.916   536.554   124.094   496.773   885.267   441.825  1541.408     6.325     3.584     0.464     2.551     0.141     0.302   214.316     3.408    39.469 .00000E+00 0.000E+00 0.000E+00
BIGSUB  13        0 1997.68669E+02  2127.196     0.000   892.602   460.502   137.606   721.409   579.066   640.445  1518.620    10.418    18.927     2.458     1.649     0.104     0.437   299.109     3.956    49.669 .00000E+00 0.000E+00 0.000E+00
BIGSUB  14        0 1997.50987E+02  2876.153     0.000   913.028   464.341   144.786   914.122  1147.187   821.904  2241.929    19.222    13.124     1.769     3.537     0.195     0.506   272.838     2.374    38.349 .00000E+00 0.000E+00 0.000E+00
BIGSUB  15        0 1997.80486E+01  2393.828     0.000   979.625   548.700   172.523   587.086   888.253   524.242  1624.147    14.941    13.604     1.850     3.115     0.157     0.561   211.652     3.072    57.105 .00000E+00 0.000E+00 0.000E+00
BIGSUB  16        0 1997.17014E+02  2393.828     0.000   979.693   607.349    93.183   529.126   920.834   477.219  1604.346     5.878     1.715     0.282     3.258     0.166     0.234   206.293     3.259    65.431 .00000E+00 0.000E+00 0.000E+00
BIGSUB  17        0 1997.35608E+02  2305.567     0.000   948.230   536.777   139.647   647.423   728.870   583.097  1557.081     3.003     3.853     0.480     2.316     0.117     0.177   245.114     2.693    43.121 .00000E+00 0.000E+00 0.000E+00
BIGSUB  18        0 1997.25428E+02  2266.935     0.000   959.210   511.754    96.690   454.105   989.663   401.029  1572.493     6.177     0.793     0.169     2.695     0.121     0.268   181.800     2.220    21.147 .00000E+00 0.000E+00 0.000E+00
BIGSUB  19        0 1997.35900E+02  2354.927     0.000   961.069   553.144   158.231   621.001   786.154   559.225  1606.377     1.555     6.006     0.753     2.582     0.101     0.127   260.997     2.151    22.033 .00000E+00 0.000E+00 0.000E+00
BIGSUB  20        0 1997.33902E+02  2377.344     0.000   948.464   562.715   130.282   603.556   887.234   549.523  1634.168     5.530    11.935     1.538     3.150     0.160     0.319   197.410     3.009    60.362 .00000E+00 0.000E+00 0.000E+00
BIGSUB  21        0 1997.82331E+01  1994.533     0.000   978.937   563.162   101.376   414.198   824.845   369.466  1267.954     5.493     0.791     0.197     3.562     0.117     0.271    73.643     0.996    28.995 .00000E+00 0.000E+00 0.000E+00
BIGSUB  22        0 1997.11681E+02  1991.459     0.000   977.526   575.419    88.079   364.160   783.810   324.308  1286.547    17.406     1.712     0.453     4.026     0.133     0.661   178.429     3.072    60.625 .00000E+00 0.000E+00 0.000E+00
BIGSUB  23        0 1997.27679E+02  2257.862     0.000   954.431   511.010    99.351   400.668  1011.277   352.285  1568.274     2.278     0.457     0.064     2.639     0.121     0.151   204.712     1.991    14.235 .00000E+00 0.000E+00 0.000E+00
BIGSUB  24        0 1997.23037E+02  2491.625     0.000   934.585   526.356   151.650   691.405   852.048   624.764  1756.609     2.441     6.827     0.875     2.563     0.121     0.171   279.797     1.936    27.842 .00000E+00 0.000E+00 0.000E+00
BIGSUB  25        0 1997.20024E+02  2510.852     0.000   941.256   550.573   168.538   748.121   926.938   675.295  1749.894     6.544    12.594     1.596     3.472     0.148     0.325   147.661     1.744    42.718 .00000E+00 0.000E+00 0.000E+00
BIGSUB  26        0 1997.17810E+02  2246.953     0.000   949.830   532.302    92.383   480.118   965.111   426.488  1546.907     1.022     0.220     0.031     2.477     0.122     0.080   155.309     1.554    16.967 .00000E+00 0.000E+00 0.000E+00
BIGSUB  27        0 1997.51552E+02  2171.554     0.000   973.920   541.829   137.559   441.332   822.204   390.683  1424.703     5.313     2.992     0.421     2.313     0.125     0.231   211.816     1.877    16.721 .00000E+00 0.000E+00 0.000E+00
BIGSUB  28        0 1997.42660E+02  2274.417     0.000   961.318   511.426    97.302   449.365   980.946   397.758  1569.583     1.831     0.374     0.052     2.556     0.125     0.126   190.879     2.036    17.892 .00000E+00 0.000E+00 0.000E+00
BIGSUB  29        0 1997.11482E+02  2490.382     0.000   933.693   525.726   170.290   701.654   870.715   634.052  1765.087     2.414     7.309     0.929     3.235     0.147     0.246   260.320     1.992    46.037 .00000E+00 0.000E+00 0.000E+00
BIGSUB  30        0 1997.49984E+02  2652.942     0.000   960.002   554.785   157.609   658.275  1043.867   596.481  1896.826     8.038     9.103     1.162     3.886     0.144     0.367   256.477     2.389    38.627 .00000E+00 0.000E+00 0.000E+00
BIGSUB  31        0 1997.79636E+02  1987.950     0.000   975.923   546.688   114.945   423.710   753.661   378.729  1280.667     9.467     2.026     0.391     3.076     0.118     0.441   148.276     1.733    43.336 .00000E+00 0.000E+00 0.000E+00
BIGSUB  32        0 1997.80153E+01  2171.554     0.000   973.931   526.402   183.884   502.291   730.399   442.493  1420.272    16.261    11.784     1.607     2.075     0.117     0.482   247.380     2.832    35.880 .00000E+00 0.000E+00 0.000E+00
BIGSUB  33        0 1997.19738E+02  2604.884     0.000   942.959   553.253   147.876   643.842  1103.364   583.865  1885.295     4.374     5.468     0.735     3.770     0.158     0.249   198.066     1.544    45.227 .00000E+00 0.000E+00 0.000E+00
BIGSUB  34        0 1997.16786E+02  2171.554     0.000   974.333   506.187   101.548   398.434   926.304   349.155  1479.802     9.973     1.480     0.210     2.895     0.109     0.311   204.343     3.066    19.528 .00000E+00 0.000E+00 0.000E+00
BIGSUB  35        0 1997.32688E+02  2038.982     0.000   942.509   504.537   128.638   480.963   763.174   424.992  1426.472     6.878     4.129     0.574     2.111     0.099     0.250   238.307     2.978    23.611 .00000E+00 0.000E+00 0.000E+00
BIGSUB  36        0 1997.22173E+02  1507.667     0.000   739.656   388.783    95.242   347.875   862.936   304.579  1316.444     1.089     0.242     0.034     1.770     0.082     0.085   148.929     1.027     6.474 .00000E+00 0.000E+00 0.000E+00
BIGSUB  37        0 1997.42742E+02  1687.056     0.000   827.807   411.138    98.935   384.510   845.557   336.315  1342.056     9.049     0.792     0.172     2.151     0.097     0.288   160.183     1.306    14.028 .00000E+00 0.000E+00 0.000E+00
BIGSUB  38        0 1997.13046E+02  1167.228     0.000   620.099   328.644   121.294   452.913   764.113   397.627  1334.427     0.521     0.121     0.017     1.005     0.060     0.048   172.688     0.530     4.977 .00000E+00 0.000E+00 0.000E+00
BIGSUB   1        0 1998.18150E+02  2143.792     0.000  1010.850   588.551    93.003   439.144   878.047   432.241  1533.887     1.845     3.553     0.444     2.485     0.153     0.139   223.599     2.806    21.349 .00000E+00 0.000E+00 0.000E+00
BIGSUB   2        0 1998.31689E+02  2139.905     0.000  1009.254   575.389    93.265   449.814   895.294   444.237  1543.308     1.641     1.980     0.251     2.494     0.150     0.125   203.777     1.670    12.783 .00000E+00 0.000E+00 0.000E+00
BIGSUB   3        0 1998.14302E+01  2156.196     0.000  1014.342   578.828    94.760   412.769   973.063   402.175  1535.992    13.535     1.650     0.493     3.744     0.184     0.483   160.754     2.485    34.410 .00000E+00 0.000E+00 0.000E+00
BIGSUB   4        0 1998.27925E+02  2134.860     0.000  1006.905   572.911    94.212   456.796   912.455   451.428  1541.490     1.331     1.354     0.173     2.593     0.167     0.107   177.607     1.606    22.924 .00000E+00 0.000E+00 0.000E+00
BIGSUB   5        0 1998.13315E+02  2156.196     0.000  1055.007   600.369   100.051   421.719   942.599   414.332  1551.993     1.416     0.379     0.054     2.584     0.163     0.116   195.063     2.622    18.875 .00000E+00 0.000E+00 0.000E+00
BIGSUB   6        0 1998.18195E+02  2130.718     0.000  1064.614   606.454    76.982   458.315   858.642   436.680  1499.537    10.737     0.688     0.205     2.456     0.128     0.228   204.215     2.475    15.481 .00000E+00 0.000E+00 0.000E+00
BIGSUB   7        0 1998.56151E+02  2146.830     0.000  1011.262   561.831    93.936   415.095   934.283   410.857  1552.216     1.770     0.462     0.066     2.688     0.167     0.137   207.076     2.661    17.097 .00000E+00 0.000E+00 0.000E+00
BIGSUB   8        0 1998.65131E+01  2151.794     0.000  1074.616   684.239    75.683   409.638   952.567   388.005  1428.539     9.333     1.114     0.333     3.392     0.171     0.355    87.967     1.834    51.379 .00000E+00 0.000E+00 0.000E+00
BIGSUB   9        0 1998.23969E+01  2151.793     0.000  1074.552   662.872   185.541   641.052   747.232   616.696  1448.886     8.929    10.073     1.403     2.684     0.165     0.284    84.957     0.567    55.876 .00000E+00 0.000E+00 0.000E+00
BIGSUB  10        0 1998.17371E+02  2140.087     0.000  1069.134   581.079    68.517   499.536   679.164   474.294  1524.250    12.127     2.733     0.484     2.075     0.106     0.261   370.791     3.181    30.832 .00000E+00 0.000E+00 0.000E+00
BIGSUB  11        0 1998.29789E+02  2052.850     0.000  1068.949   671.744    79.980   455.224   790.229   440.482  1350.479     1.131     0.321     0.059     2.119     0.143     0.109   119.768     0.933    34.642 .00000E+00 0.000E+00 0.000E+00
BIGSUB  12        0 1998.21222E+02  2298.509     0.000  1090.636   674.704   106.603   508.249   871.736   482.031  1574.710     7.533     3.677     0.478     2.962     0.165     0.309   220.943     2.839    44.465 .00000E+00 0.000E+00 0.000E+00
BIGSUB  13        0 1998.68669E+02  1878.309     0.000  1021.974   626.793   113.297   499.284   521.054   493.509  1248.818    11.452    17.468     2.316     1.391     0.123     0.381   234.255     3.427    41.815 .00000E+00 0.000E+00 0.000E+00
BIGSUB  14        0 1998.50987E+02  1912.409     0.000  1024.408   589.751   136.151   565.093   540.780   555.927  1296.610     9.377     7.877     1.161     1.448     0.125     0.286   199.904     2.573    44.837 .00000E+00 0.000E+00 0.000E+00
BIGSUB  15        0 1998.80486E+01  2151.794     0.000  1074.704   660.233   149.222   519.951   764.684   496.681  1454.625    12.484    10.080     1.440     2.615     0.156     0.382   193.260     2.108    51.253 .00000E+00 0.000E+00 0.000E+00
BIGSUB  16        0 1998.17014E+02  2151.794     0.000  1074.779   710.267    64.041   463.838   786.638   437.561  1408.025     5.077     1.434     0.263     2.398     0.151     0.179   183.826     2.276    51.750 .00000E+00 0.000E+00 0.000E+00
BIGSUB  17        0 1998.35608E+02  1995.006     0.000  1074.450   672.795   104.964   507.522   613.352   485.219  1305.066     2.965     3.400     0.424     1.852     0.117     0.163   206.495     1.977    34.991 .00000E+00 0.000E+00 0.000E+00
BIGSUB  18        0 1998.25428E+02  2289.885     0.000  1086.454   655.613    81.315   456.413   974.155   434.320  1592.248     6.944     0.755     0.194     3.104     0.160     0.255   183.773     1.902    25.715 .00000E+00 0.000E+00 0.000E+00
BIGSUB  19        0 1998.35900E+02  1885.363     0.000  1098.941   690.761   133.744   437.417   554.499   419.142  1180.295     1.418     5.008     0.628     1.587     0.095     0.120   206.654     1.706    18.513 .00000E+00 0.000E+00 0.000E+00
BIGSUB  20        0 1998.33902E+02  1700.794     0.000  1090.686   666.472   103.597   412.439   477.014   390.460  1012.916     5.684     9.742     1.274     1.567     0.103     0.295   145.442     2.424    57.809 .00000E+00 0.000E+00 0.000E+00
BIGSUB  21        0 1998.82331E+01  2005.385     0.000  1083.825   645.208    81.084   404.748   869.115   380.296  1320.730     5.038     1.015     0.278     3.014     0.161     0.256    71.319     0.987    41.611 .00000E+00 0.000E+00 0.000E+00
BIGSUB  22        0 1998.11681E+02  2002.295     0.000  1082.265   632.057    71.495   355.260   822.861   330.477  1329.534    15.686     2.321     0.700     3.406     0.170     0.613   176.196     1.308    58.568 .00000E+00 0.000E+00 0.000E+00
BIGSUB  23        0 1998.27679E+02  1977.369     0.000  1101.814   667.366    77.559   342.637   783.835   327.762  1292.166     1.730     0.402     0.057     2.224     0.122     0.126   180.569     1.611    12.103 .00000E+00 0.000E+00 0.000E+00
BIGSUB  24        0 1998.23037E+02  1941.667     0.000  1062.158   655.376   132.758   513.130   542.193   489.933  1259.303     1.828     3.970     0.521     1.579     0.101     0.118   227.177     1.626    29.173 .00000E+00 0.000E+00 0.000E+00
BIGSUB  25        0 1998.20024E+02  1956.651     0.000  1069.816   656.121   154.931   559.262   600.820   534.577  1257.014     5.830     9.881     1.257     2.670     0.114     0.266   121.616     1.644    43.272 .00000E+00 0.000E+00 0.000E+00
BIGSUB  26        0 1998.17810E+02  1967.815     0.000  1096.519   698.047    66.918   410.621   727.407   389.991  1258.450     0.757     0.188     0.026     1.998     0.114     0.063   141.051     1.267    14.165 .00000E+00 0.000E+00 0.000E+00
BIGSUB  27        0 1998.51552E+02  1971.599     0.000  1080.180   681.266   110.514   399.951   683.994   382.948  1265.194     3.908     2.499     0.367     2.065     0.124     0.175   198.252     2.240    24.097 .00000E+00 0.000E+00 0.000E+00
BIGSUB  28        0 1998.42660E+02  1991.867     0.000  1109.816   668.840    75.828   385.571   754.370   368.680  1293.225     1.386     0.328     0.046     2.136     0.120     0.104   170.175     1.708    15.749 .00000E+00 0.000E+00 0.000E+00
BIGSUB  29        0 1998.11482E+02  1940.699     0.000  1061.204   631.746   156.364   522.856   565.639   498.685  1276.470     1.982     4.560     0.587     2.229     0.123     0.199   212.146     1.537    46.987 .00000E+00 0.000E+00 0.000E+00
BIGSUB  30        0 1998.49984E+02  2038.108     0.000  1075.367   670.916   136.744   519.642   618.224   493.449  1330.051     7.230     6.530     0.856     3.016     0.113     0.310   218.378     1.995    38.522 .00000E+00 0.000E+00 0.000E+00
BIGSUB  31        0 1998.79636E+02  1998.767     0.000  1080.510   628.877    95.214   412.377   801.831   387.874  1333.746     8.544     2.539     0.542     2.776     0.160     0.417   144.041     1.871    52.559 .00000E+00 0.000E+00 0.000E+00
BIGSUB  32        0 1998.80153E+01  1971.599     0.000  1080.139   665.456   159.632   459.142   605.781   439.767  1277.784    10.465     8.753     1.253     1.904     0.116     0.299   232.236     2.441    28.698 .00000E+00 0.000E+00 0.000E+00
BIGSUB  33        0 1998.19738E+02  2001.187     0.000  1056.286   677.883   125.746   510.927   659.203   485.341  1312.089     3.431     3.897     0.550     2.520     0.121     0.192   167.545     1.332    40.938 .00000E+00 0.000E+00 0.000E+00
BIGSUB  34        0 1998.16786E+02  1971.599     0.000  1080.674   613.536    83.984   360.623   792.147   343.188  1323.157     8.739     1.879     0.240     2.636     0.126     0.281   187.822     2.605    18.157 .00000E+00 0.000E+00 0.000E+00
BIGSUB  35        0 1998.32688E+02  1959.149     0.000  1050.032   623.050   107.711   454.844   716.290   432.524  1379.568     6.939     4.423     0.646     2.151     0.122     0.239   230.754     2.213    22.308 .00000E+00 0.000E+00 0.000E+00
BIGSUB  36        0 1998.22173E+02  1357.706     0.000   829.714   493.895    71.235   306.793   703.611   289.353  1128.733     0.767     0.192     0.027     1.427     0.089     0.064   135.769     0.819     5.148 .00000E+00 0.000E+00 0.000E+00
BIGSUB  37        0 1998.42742E+02  1519.251     0.000   928.591   515.561    76.999   343.219   699.064   322.947  1168.560     5.145     0.671     0.151     1.753     0.105     0.192   146.550     1.269    14.839 .00000E+00 0.000E+00 0.000E+00
BIGSUB  38        0 1998.13046E+02  1051.129     0.000   695.126   405.504    98.554   409.502   621.930   386.489  1170.408     0.358     0.092     0.013     0.823     0.062     0.035   161.989     0.446     4.479 .00000E+00 0.000E+00 0.000E+00
BIGSUB   1        0 1999.18150E+02  1603.569     0.000  1021.119   457.282    83.455   384.120   564.988   347.043  1096.136     1.588     3.337     0.417     1.516     0.124     0.132   184.104     1.672    15.770 .00000E+00 0.000E+00 0.000E+00
BIGSUB   2        0 1999.31689E+02  1600.661     0.000  1019.493   433.171    87.324   399.259   581.203   362.169  1114.234     1.379     1.829     0.231     1.565     0.124     0.116   170.862     1.438    13.499 .00000E+00 0.000E+00 0.000E+00
BIGSUB   3        0 1999.14302E+01  1612.847     0.000  1024.704   480.643    83.886   347.534   632.593   313.537  1080.683     7.985     1.480     0.382     2.860     0.139     0.365   134.553     2.319    32.822 .00000E+00 0.000E+00 0.000E+00
BIGSUB   4        0 1999.27925E+02  1596.888     0.000  1017.137   465.337    79.394   392.981   585.001   357.345  1091.084     1.105     1.222     0.156     1.580     0.131     0.097   148.737     1.248    17.759 .00000E+00 0.000E+00 0.000E+00
BIGSUB   5        0 1999.13315E+02  1612.847     0.000  1065.345   516.100    82.135   358.950   605.535   325.175  1092.201     1.173     0.331     0.047     1.570     0.128     0.104   161.491     1.226     8.078 .00000E+00 0.000E+00 0.000E+00
BIGSUB   6        0 1999.18195E+02  1500.941     0.000  1094.172   444.123    82.056   381.842   490.598   345.074   998.646     4.953     0.565     0.147     1.651     0.092     0.159   162.973     2.056    13.374 .00000E+00 0.000E+00 0.000E+00
BIGSUB   7        0 1999.56151E+02  1605.841     0.000  1021.577   464.051    78.251   356.315   600.982   324.844  1097.860     1.395     0.385     0.055     1.647     0.132     0.119   172.033     1.476    10.070 .00000E+00 0.000E+00 0.000E+00
BIGSUB   8        0 1999.65131E+01  1515.788     0.000  1104.724   593.268    69.292   298.916   539.391   270.274   875.689     4.132     0.759     0.209     2.734     0.110     0.197    66.024     1.482    42.218 .00000E+00 0.000E+00 0.000E+00
BIGSUB   9        0 1999.23969E+01  1515.787     0.000  1104.737   536.952   181.499   505.729   386.107   462.437   915.090     3.271     6.126     0.840     2.073     0.097     0.157    66.546     0.489    50.456 .00000E+00 0.000E+00 0.000E+00
BIGSUB  10        0 1999.17371E+02  1507.541     0.000  1098.956   451.886    72.981   381.846   375.260   346.826   995.266     5.527     2.222     0.369     1.478     0.072     0.175   273.180     2.661    26.926 .00000E+00 0.000E+00 0.000E+00
BIGSUB  11        0 1999.29789E+02  1884.642     0.000  1093.146   540.274    71.270   471.571   730.433   432.603  1283.039     1.011     0.292     0.049     2.143     0.146     0.094   120.003     1.004    33.640 .00000E+00 0.000E+00 0.000E+00
BIGSUB  12        0 1999.21222E+02  1780.346     0.000  1112.800   531.830   100.038   443.295   595.464   404.045  1184.764     3.919     2.963     0.366     2.326     0.125     0.193   185.255     2.148    33.492 .00000E+00 0.000E+00 0.000E+00
BIGSUB  13        0 1999.68669E+02  1730.504     0.000  1018.965   515.448   106.115   532.521   430.198   487.864  1154.100     6.512    15.313     2.014     1.214     0.109     0.308   236.038     3.767    45.422 .00000E+00 0.000E+00 0.000E+00
BIGSUB  14        0 1999.50987E+02  1840.986     0.000  1032.606   516.932   114.301   559.599   575.882   514.293  1273.779     7.413     8.135     1.164     1.741     0.137     0.256   183.604     2.386    40.285 .00000E+00 0.000E+00 0.000E+00
BIGSUB  15        0 1999.80486E+01  1515.788     0.000  1104.822   537.944   148.585   403.668   400.914   366.360   916.695     4.727     6.387     0.896     1.911     0.094     0.216   149.420     1.653    44.549 .00000E+00 0.000E+00 0.000E+00
BIGSUB  16        0 1999.17014E+02  1515.787     0.000  1104.891   611.514    60.785   327.075   422.523   295.343   852.870     2.366     1.170     0.196     1.638     0.089     0.111   135.004     1.391    23.488 .00000E+00 0.000E+00 0.000E+00
BIGSUB  17        0 1999.35608E+02  1589.877     0.000  1102.357   529.379   104.290   424.634   444.341   386.582   999.196     1.871     3.351     0.407     1.453     0.096     0.122   168.273     1.472    25.666 .00000E+00 0.000E+00 0.000E+00
BIGSUB  18        0 1999.25428E+02  1773.666     0.000  1108.555   486.642    77.472   409.339   694.346   371.761  1225.346     3.608     0.549     0.139     2.283     0.133     0.184   159.239     1.573    21.528 .00000E+00 0.000E+00 0.000E+00
BIGSUB  19        0 1999.35900E+02  1641.442     0.000  1082.420   515.022   128.774   430.461   497.080   390.694  1071.903     1.091     4.701     0.586     1.573     0.100     0.097   184.130     1.564    18.175 .00000E+00 0.000E+00 0.000E+00
BIGSUB  20        0 1999.33902E+02  1654.824     0.000  1075.475   545.449   101.259   407.216   537.236   369.858  1045.764     3.198     8.739     1.119     1.996     0.119     0.201   138.670     2.156    42.778 .00000E+00 0.000E+00 0.000E+00
BIGSUB  21        0 1999.82331E+01  1475.858     0.000  1129.423   527.626    78.458   307.507   563.404   276.827   895.786     3.013     0.656     0.168     2.397     0.110     0.148    55.555     0.856    36.360 .00000E+00 0.000E+00 0.000E+00
BIGSUB  22        0 1999.11681E+02  1473.584     0.000  1127.781   561.190    67.133   247.354   515.665   221.136   868.970     9.190     1.444     0.411     3.003     0.101     0.344   132.169     0.975    49.596 .00000E+00 0.000E+00 0.000E+00
BIGSUB  23        0 1999.27679E+02  1610.117     0.000  1110.234   486.121    77.907   290.494   664.786   259.789  1072.053     1.845     0.456     0.064     1.728     0.126     0.146   147.477     1.430    10.875 .00000E+00 0.000E+00 0.000E+00
BIGSUB  24        0 1999.23037E+02  1692.952     0.000  1068.365   481.718   127.981   480.178   519.072   438.090  1153.093     1.499     5.350     0.686     1.467     0.111     0.120   195.930     1.443    26.898 .00000E+00 0.000E+00 0.000E+00
BIGSUB  25        0 1999.20024E+02  1706.016     0.000  1076.103   524.564   142.647   503.961   556.834   462.331  1122.886     3.553     8.150     1.020     2.110     0.110     0.192   103.721     1.139    28.810 .00000E+00 0.000E+00 0.000E+00
BIGSUB  26        0 1999.17810E+02  1602.338     0.000  1104.956   539.579    63.424   331.336   611.886   298.850  1020.371     0.812     0.214     0.030     1.547     0.116     0.072   109.635     1.120    12.317 .00000E+00 0.000E+00 0.000E+00
BIGSUB  27        0 1999.51552E+02  1470.022     0.000  1098.469   529.108   106.957   311.206   457.518   281.871   890.366     2.344     1.724     0.247     1.413     0.097     0.122   150.978     1.854    19.249 .00000E+00 0.000E+00 0.000E+00
BIGSUB  28        0 1999.42660E+02  1621.923     0.000  1118.376   490.041    75.495   324.542   640.358   292.181  1070.768     1.472     0.370     0.052     1.662     0.123     0.119   138.229     1.529    13.909 .00000E+00 0.000E+00 0.000E+00
BIGSUB  29        0 1999.11482E+02  1692.108     0.000  1067.455   485.696   150.622   479.554   529.380   437.797  1150.150     1.613     5.972     0.738     1.993     0.115     0.162   182.972     1.487    45.425 .00000E+00 0.000E+00 0.000E+00
BIGSUB  30        0 1999.49984E+02  1800.981     0.000  1076.587   526.631   129.437   459.428   608.855   419.938  1212.964     4.792     6.692     0.866     2.338     0.122     0.245   184.170     1.660    30.985 .00000E+00 0.000E+00 0.000E+00
BIGSUB  31        0 1999.79636E+02  1470.987     0.000  1125.890   514.383    94.308   315.242   508.359   284.153   904.800     5.000     1.626     0.329     2.235     0.103     0.240   112.288     1.421    45.809 .00000E+00 0.000E+00 0.000E+00
BIGSUB  32        0 1999.80153E+01  1470.022     0.000  1098.497   506.254   158.581   364.461   399.124   330.998   907.380     5.501     6.213     0.860     1.200     0.089     0.197   177.259     1.666    15.132 .00000E+00 0.000E+00 0.000E+00
BIGSUB  33        0 1999.19738E+02  1768.356     0.000  1057.496   531.575   117.823   448.860   646.659   410.288  1199.243     2.492     3.905     0.539     2.059     0.130     0.158   142.296     1.178    35.941 .00000E+00 0.000E+00 0.000E+00
BIGSUB  34        0 1999.16786E+02  1470.022     0.000  1098.939   459.904    85.473   292.618   543.243   263.210   953.346     4.956     1.274     0.156     1.916     0.104     0.190   146.893     2.158    14.755 .00000E+00 0.000E+00 0.000E+00
BIGSUB  35        0 1999.32688E+02  1467.696     0.000  1067.560   457.489   112.308   372.083   486.539   337.697  1005.100     3.355     2.989     0.434     1.454     0.095     0.156   180.864     1.544    14.044 .00000E+00 0.000E+00 0.000E+00
BIGSUB  36        0 1999.22173E+02  1098.285     0.000   842.601   368.520    78.814   277.741   546.284   250.238   913.011     0.817     0.220     0.031     1.048     0.083     0.073   116.489     0.694     4.320 .00000E+00 0.000E+00 0.000E+00
BIGSUB  37        0 1999.42742E+02  1228.963     0.000   942.956   372.021    86.163   314.641   544.455   283.603   955.852     3.713     0.587     0.143     1.471     0.094     0.176   127.795     1.113    14.188 .00000E+00 0.000E+00 0.000E+00
BIGSUB  38        0 1999.13046E+02   850.286     0.000   705.013   313.089   108.893   381.962   485.787   346.535   969.771     0.402     0.110     0.015     0.601     0.056     0.041   137.449     0.365     3.568 .00000E+00 0.000E+00 0.000E+00
BIGSUB   1        0 2000.18150E+02  2341.274     0.000   977.960   613.993   105.777   441.754  1008.731   396.914  1625.041     3.061     6.671     0.835     3.166     0.223     0.262   219.396     2.689    20.451 .00000E+00 0.000E+00 0.000E+00
BIGSUB   2        0 2000.31689E+02  2337.028     0.000   976.434   600.190   104.261   454.178  1031.815   408.953  1641.938     2.660     3.676     0.466     3.243     0.224     0.229   201.170     1.573    12.385 .00000E+00 0.000E+00 0.000E+00
BIGSUB   3        0 2000.14302E+01  2354.820     0.000   981.125   603.011   101.062   413.780  1117.891   367.849  1645.369    12.994     1.804     0.485     4.119     0.235     0.570   159.629     2.283    32.949 .00000E+00 0.000E+00 0.000E+00
BIGSUB   4        0 2000.27925E+02  2331.519     0.000   974.174   608.801   103.550   451.970  1042.369   407.330  1624.909     2.138     2.483     0.317     3.291     0.236     0.193   175.211     1.536    22.114 .00000E+00 0.000E+00 0.000E+00
BIGSUB   5        0 2000.13315E+02  2354.820     0.000  1021.374   640.618   107.297   411.562  1072.630   369.308  1633.820     2.266     0.703     0.100     3.237     0.229     0.207   191.882     2.614    18.456 .00000E+00 0.000E+00 0.000E+00
BIGSUB   6        0 2000.18195E+02  2051.134     0.000  1049.663   493.797    96.116   445.930   880.877   390.310  1461.144     4.969     0.724     0.187     2.865     0.170     0.202   189.957     2.342    14.320 .00000E+00 0.000E+00 0.000E+00
BIGSUB   7        0 2000.56151E+02  2344.591     0.000   978.275   603.545   101.502   407.319  1066.080   367.691  1637.785     2.747     0.832     0.119     3.394     0.234     0.241   204.014     2.640    16.659 .00000E+00 0.000E+00 0.000E+00
BIGSUB   8        0 2000.65131E+01  2071.423     0.000  1059.648   586.408    99.963   380.275   953.602   332.207  1366.567     3.909     0.862     0.244     3.738     0.187     0.211    80.758     1.745    46.963 .00000E+00 0.000E+00 0.000E+00
BIGSUB   9        0 2000.23969E+01  2071.422     0.000  1059.632   577.091   207.729   596.898   756.006   523.374  1356.479     3.256     9.003     1.218     2.797     0.179     0.185    77.098     0.550    51.989 .00000E+00 0.000E+00 0.000E+00
BIGSUB  10        0 2000.17371E+02  2060.153     0.000  1054.197   482.170    90.029   473.069   714.499   415.886  1471.324     5.967     3.445     0.537     2.336     0.135     0.218   340.939     3.124    28.991 .00000E+00 0.000E+00 0.000E+00
BIGSUB  11        0 2000.29789E+02  2384.577     0.000  1063.212   544.316    96.793   583.427  1044.223   517.898  1707.060     1.303     0.409     0.067     3.425     0.210     0.121   144.939     1.563    45.141 .00000E+00 0.000E+00 0.000E+00
BIGSUB  12        0 2000.21222E+02  2397.719     0.000  1068.945   544.605   126.533   544.774  1009.780   485.543  1719.352     5.025     4.512     0.579     3.494     0.208     0.255   224.029     2.800    37.606 .00000E+00 0.000E+00 0.000E+00
BIGSUB  13        0 2000.68669E+02  2380.359     0.000   987.039   647.451   135.525   636.922   739.217   576.150  1605.567     9.727    23.777     3.052     2.357     0.175     0.399   290.199     3.583    42.759 .00000E+00 0.000E+00 0.000E+00
BIGSUB  14        0 2000.50987E+02  2423.981     0.000   984.205   617.268   141.079   686.823   819.792   622.923  1674.863    11.032    10.773     1.467     2.585     0.192     0.343   232.149     2.220    39.048 .00000E+00 0.000E+00 0.000E+00
BIGSUB  15        0 2000.80486E+01  2071.423     0.000  1059.751   560.193   174.964   489.422   778.352   428.382  1384.808     4.721     9.191     1.263     2.708     0.176     0.250   178.075     1.979    46.048 .00000E+00 0.000E+00 0.000E+00
BIGSUB  16        0 2000.17014E+02  2071.423     0.000  1059.830   567.551    97.780   435.146   824.490   381.160  1374.155     2.416     1.716     0.277     2.779     0.176     0.137   168.504     2.225    47.011 .00000E+00 0.000E+00 0.000E+00
BIGSUB  17        0 2000.35608E+02  2040.860     0.000  1078.164   549.261   140.239   542.999   668.105   481.494  1358.835     2.053     4.016     0.506     2.156     0.146     0.141   209.236     1.979    31.648 .00000E+00 0.000E+00 0.000E+00
BIGSUB  18        0 2000.25428E+02  2388.722     0.000  1064.865   520.994    97.797   493.869  1120.913   437.957  1750.099     4.592     0.961     0.205     3.829     0.214     0.253   191.230     1.883    22.425 .00000E+00 0.000E+00 0.000E+00
BIGSUB  19        0 2000.35900E+02  2269.422     0.000  1020.686   530.572   158.846   576.825   862.293   510.925  1610.911     1.678     7.388     0.920     2.876     0.179     0.148   237.693     1.996    22.316 .00000E+00 0.000E+00 0.000E+00
BIGSUB  20        0 2000.33902E+02  2002.518     0.000  1032.339   562.309   131.613   521.588   679.727   470.813  1321.208     3.362    10.123     1.326     2.476     0.145     0.214   170.668     2.430    52.320 .00000E+00 0.000E+00 0.000E+00
BIGSUB  21        0 2000.82331E+01  2161.009     0.000  1081.324   568.097    99.817   435.909  1019.320   390.035  1484.103     3.778     1.079     0.262     3.753     0.190     0.206    74.747     0.819    39.182 .00000E+00 0.000E+00 0.000E+00
BIGSUB  22        0 2000.11681E+02  2157.678     0.000  1079.760   577.833    88.236   374.533   964.142   333.480  1480.340    11.039     2.528     0.658     3.808     0.176     0.473   182.718     2.893    50.406 .00000E+00 0.000E+00 0.000E+00
BIGSUB  23        0 2000.27679E+02  2109.640     0.000  1094.740   509.984   100.628   377.158   980.521   328.647  1498.903     3.016     0.826     0.117     3.230     0.191     0.243   189.735     1.745    13.141 .00000E+00 0.000E+00 0.000E+00
BIGSUB  24        0 2000.23037E+02  2260.486     0.000  1042.912   533.001   150.845   601.953   826.801   533.557  1603.720     1.882     7.759     0.990     2.715     0.182     0.157   243.362     1.732    27.279 .00000E+00 0.000E+00 0.000E+00
BIGSUB  25        0 2000.20024E+02  2277.930     0.000  1050.536   564.425   167.227   635.682   880.599   561.858  1570.295     4.250    10.823     1.382     3.218     0.172     0.234   127.838     1.590    39.552 .00000E+00 0.000E+00 0.000E+00
BIGSUB  26        0 2000.17810E+02  2099.448     0.000  1089.552   524.816    96.093   440.952   936.979   386.558  1466.577     1.393     0.407     0.057     3.044     0.186     0.126   143.040     1.393    15.430 .00000E+00 0.000E+00 0.000E+00
BIGSUB  27        0 2000.51552E+02  2207.798     0.000  1072.049   537.880   139.127   426.193   969.839   376.804  1545.302     4.256     4.757     0.651     3.119     0.209     0.252   198.659     2.063    20.829 .00000E+00 0.000E+00 0.000E+00
BIGSUB  28        0 2000.42660E+02  2125.109     0.000  1102.793   511.796    98.341   417.930   954.564   365.973  1496.658     2.404     0.669     0.095     3.144     0.190     0.199   176.121     1.831    16.576 .00000E+00 0.000E+00 0.000E+00
BIGSUB  29        0 2000.11482E+02  2259.359     0.000  1042.092   553.000   168.079   602.415   829.462   534.559  1590.456     1.949     8.244     1.034     3.149     0.180     0.193   226.436     1.664    44.408 .00000E+00 0.000E+00 0.000E+00
BIGSUB  30        0 2000.49984E+02  2442.583     0.000  1045.893   550.422   156.373   591.874   996.955   528.861  1757.239     6.765    11.399     1.471     3.714     0.192     0.337   231.424     2.214    38.528 .00000E+00 0.000E+00 0.000E+00
BIGSUB  31        0 2000.79636E+02  2153.876     0.000  1077.962   560.819   113.481   442.339   944.737   396.454  1491.289     6.470     3.336     0.611     3.385     0.179     0.343   150.098     1.507    43.937 .00000E+00 0.000E+00 0.000E+00
BIGSUB  32        0 2000.80153E+01  2207.797     0.000  1072.083   539.863   185.301   482.864   886.045   427.127  1543.724     9.494    13.909     1.901     2.954     0.197     0.365   230.552     1.950    19.401 .00000E+00 0.000E+00 0.000E+00
BIGSUB  33        0 2000.19738E+02  2398.335     0.000  1027.288   547.386   146.220   579.198  1053.848   517.189  1749.490     3.503     6.601     0.891     3.596     0.207     0.225   178.453     1.403    35.885 .00000E+00 0.000E+00 0.000E+00
BIGSUB  34        0 2000.16786E+02  2207.797     0.000  1072.511   510.495   101.196   384.618  1061.097   336.529  1590.026     8.403     2.353     0.316     3.784     0.199     0.350   192.400     2.461    16.056 .00000E+00 0.000E+00 0.000E+00
BIGSUB  35        0 2000.32688E+02  2190.926     0.000  1038.847   497.867   129.206   489.927  1009.031   429.060  1671.610     5.693     5.639     0.797     3.165     0.196     0.258   233.520     2.874    21.962 .00000E+00 0.000E+00 0.000E+00
BIGSUB  36        0 2000.22173E+02  1686.087     0.000   831.398   389.814   101.812   408.782  1085.191   356.672  1609.556     1.795     0.529     0.075     2.688     0.168     0.162   167.692     1.025     6.843 .00000E+00 0.000E+00 0.000E+00
BIGSUB  37        0 2000.42742E+02  1886.704     0.000   930.359   426.650    99.600   444.694  1059.056   387.197  1625.384     5.228     1.010     0.213     3.264     0.176     0.276   179.131     1.485    16.429 .00000E+00 0.000E+00 0.000E+00
BIGSUB  38        0 2000.13046E+02  1305.360     0.000   695.632   345.888   121.848   526.310   986.603   460.252  1632.880     0.922     0.275     0.038     1.593     0.117     0.096   186.025     0.516     5.105 .00000E+00 0.000E+00 0.000E+00
BIGSUB   1        0 2001.18150E+02  1703.531     0.000   972.304   449.352    89.864   399.569   657.385   376.260  1223.572     1.765     3.921     0.492     1.916     0.146     0.152   189.927     1.351    11.446 .00000E+00 0.000E+00 0.000E+00
BIGSUB   2        0 2001.31689E+02  1700.442     0.000   970.802   432.307    93.680   409.801   671.344   387.516  1233.628     1.531     2.178     0.277     1.943     0.146     0.133   174.768     1.132     9.483 .00000E+00 0.000E+00 0.000E+00
BIGSUB   3        0 2001.14302E+01  1713.388     0.000   975.279   472.779    88.336   359.515   725.828   339.415  1202.810    10.902     1.627     0.460     2.318     0.163     0.472   137.567     1.118    12.006 .00000E+00 0.000E+00 0.000E+00
BIGSUB   4        0 2001.27925E+02  1696.433     0.000   968.560   453.425    86.185   407.985   679.670   386.764  1218.684     1.229     1.475     0.189     1.981     0.155     0.111   152.250     0.981     9.356 .00000E+00 0.000E+00 0.000E+00
BIGSUB   5        0 2001.13315E+02  1713.388     0.000  1015.870   500.151    88.533   372.844   700.836   352.161  1219.258     1.304     0.449     0.064     1.952     0.152     0.119   166.261     0.986     6.077 .00000E+00 0.000E+00 0.000E+00
BIGSUB   6        0 2001.18195E+02  1581.133     0.000  1032.087   603.058    10.074   364.014   527.542   352.566  1039.271     5.493     0.599     0.144     1.595     0.117     0.168   159.163     1.433     9.163 .00000E+00 0.000E+00 0.000E+00
BIGSUB   7        0 2001.56151E+02  1705.944     0.000   972.546   452.313    84.637   368.654   695.138   350.564  1222.509     1.566     0.528     0.076     2.042     0.155     0.138   176.807     1.093     6.206 .00000E+00 0.000E+00 0.000E+00
BIGSUB   8        0 2001.65131E+01  1596.773     0.000  1041.643   637.273    30.103   322.745   613.673   311.315   993.649     4.867     0.883     0.231     2.531     0.140     0.248    68.660     1.153    33.391 .00000E+00 0.000E+00 0.000E+00
BIGSUB   9        0 2001.23969E+01  1596.772     0.000  1041.569   663.871   117.819   501.428   430.473   493.252   991.774     4.005     7.817     1.060     1.892     0.116     0.211    68.050     0.427    33.611 .00000E+00 0.000E+00 0.000E+00
BIGSUB  10        0 2001.17371E+02  1588.085     0.000  1036.433   577.281    11.498   389.300   397.557   376.019  1056.708     6.089     1.573     0.276     1.368     0.090     0.179   283.133     2.071    21.302 .00000E+00 0.000E+00 0.000E+00
BIGSUB  11        0 2001.29789E+02  1664.035     0.000  1069.701   638.404    14.474   364.888   627.843   359.682  1079.276     0.899     0.315     0.054     2.089     0.144     0.091    91.751     0.722    25.966 .00000E+00 0.000E+00 0.000E+00
BIGSUB  12        0 2001.21222E+02  1980.506     0.000  1045.447   631.933    45.913   490.434   705.691   469.710  1376.555     4.700     2.990     0.386     2.736     0.156     0.213   201.154     2.348    34.403 .00000E+00 0.000E+00 0.000E+00
BIGSUB  13        0 2001.68669E+02  1818.759     0.000   972.015   493.455   116.183   573.761   497.300   546.855  1294.613     8.316    16.110     2.144     1.577     0.128     0.349   250.458     3.101    37.155 .00000E+00 0.000E+00 0.000E+00
BIGSUB  14        0 2001.50987E+02  2068.804     0.000  1005.532   490.090   124.449   650.975   704.900   621.982  1536.825     9.320     9.390     1.334     2.359     0.173     0.308   209.943     1.918    30.897 .00000E+00 0.000E+00 0.000E+00
BIGSUB  15        0 2001.80486E+01  1596.773     0.000  1041.758   640.690    89.765   410.349   455.305   399.552  1007.399     5.685     8.069     1.112     1.809     0.118     0.274   152.542     1.433    29.609 .00000E+00 0.000E+00 0.000E+00
BIGSUB  16        0 2001.17014E+02  1596.773     0.000  1041.855   628.365    18.356   380.758   503.275   366.759  1010.129     2.620     0.845     0.158     1.830     0.121     0.124   140.095     1.636    41.677 .00000E+00 0.000E+00 0.000E+00
BIGSUB  17        0 2001.35608E+02  2044.230     0.000  1061.914   631.167    53.552   464.674   825.607   446.994  1452.337     3.474     5.034     0.646     3.475     0.199     0.214   179.736     1.830    28.570 .00000E+00 0.000E+00 0.000E+00
BIGSUB  18        0 2001.25428E+02  1973.075     0.000  1041.375   628.690    13.359   434.659   798.979   416.440  1382.895     4.238     0.790     0.159     2.615     0.168     0.208   167.476     1.462    17.489 .00000E+00 0.000E+00 0.000E+00
BIGSUB  19        0 2001.35900E+02  1830.526     0.000  1025.870   646.213    65.600   495.150   553.794   482.270  1245.064     1.358     4.730     0.589     1.710     0.124     0.103   209.000     1.763    20.023 .00000E+00 0.000E+00 0.000E+00
BIGSUB  20        0 2001.33902E+02  1540.462     0.000  1050.576   634.030    54.417   426.405   393.549   403.254   938.687     2.799     6.928     0.908     2.089     0.094     0.180   141.884     2.247    45.923 .00000E+00 0.000E+00 0.000E+00
BIGSUB  21        0 2001.82331E+01  1687.792     0.000  1065.553   643.691    31.452   335.474   692.175   315.970  1067.078     3.812     0.940     0.224     2.412     0.145     0.197    58.933     0.657    28.753 .00000E+00 0.000E+00 0.000E+00
BIGSUB  22        0 2001.11681E+02  1685.191     0.000  1064.055   615.755    41.471   287.642   658.049   267.915  1071.599    11.705     2.229     0.549     2.477     0.131     0.454   145.634     1.000    33.597 .00000E+00 0.000E+00 0.000E+00
BIGSUB  23        0 2001.27679E+02  1640.290     0.000  1049.860   639.646    11.796   304.731   616.379   292.663  1059.729     1.323     0.400     0.057     1.882     0.136     0.112   150.687     1.387    11.175 .00000E+00 0.000E+00 0.000E+00
BIGSUB  24        0 2001.23037E+02  1715.507     0.000  1021.956   637.886    59.020   486.296   462.176   472.616  1139.049     1.305     3.924     0.508     1.339     0.112     0.104   204.257     1.434    20.012 .00000E+00 0.000E+00 0.000E+00
BIGSUB  25        0 2001.20024E+02  1728.745     0.000  1029.095   636.143    93.339   521.380   509.810   509.547  1129.404     3.680     7.763     0.985     2.003     0.106     0.188   110.047     1.371    33.984 .00000E+00 0.000E+00 0.000E+00
BIGSUB  26        0 2001.17810E+02  1632.365     0.000  1044.781   629.645    14.398   372.187   581.961   356.575  1057.520     0.610     0.196     0.028     1.755     0.131     0.057   118.984     1.159    13.747 .00000E+00 0.000E+00 0.000E+00
BIGSUB  27        0 2001.51552E+02  1728.131     0.000  1037.818   644.210    49.865   366.803   609.819   351.315  1129.640     3.167     2.702     0.379     1.834     0.145     0.172   168.506     1.724    18.029 .00000E+00 0.000E+00 0.000E+00
BIGSUB  28        0 2001.42660E+02  1652.317     0.000  1057.374   638.815    11.501   343.097   590.032   330.337  1062.731     1.062     0.327     0.046     1.799     0.133     0.092   142.362     1.503    14.610 .00000E+00 0.000E+00 0.000E+00
BIGSUB  29        0 2001.11482E+02  1714.651     0.000  1020.854   644.225    83.666   479.104   467.925   465.182  1124.406     1.385     4.083     0.523     1.930     0.109     0.144   191.299     1.361    30.803 .00000E+00 0.000E+00 0.000E+00
BIGSUB  30        0 2001.49984E+02  1927.462     0.000  1046.681   638.249    79.392   468.748   676.851   452.008  1320.433     4.682     6.575     0.858     2.399     0.142     0.226   191.574     1.843    28.937 .00000E+00 0.000E+00 0.000E+00
BIGSUB  31        0 2001.79636E+02  1682.222     0.000  1062.373   633.860    45.716   340.369   632.477   320.693  1073.376     6.375     2.234     0.442     2.203     0.133     0.312   120.207     1.241    33.338 .00000E+00 0.000E+00 0.000E+00
BIGSUB  32        0 2001.80153E+01  1728.131     0.000  1037.722   649.949    92.946   412.946   532.245   395.991  1127.164     7.796     8.933     1.225     1.790     0.130     0.272   198.927     1.648    16.274 .00000E+00 0.000E+00 0.000E+00
BIGSUB  33        0 2001.19738E+02  1892.546     0.000  1028.236   638.286    65.862   460.977   721.042   445.169  1312.459     2.364     3.881     0.535     2.298     0.155     0.148   146.247     1.175    30.662 .00000E+00 0.000E+00 0.000E+00
BIGSUB  34        0 2001.16786E+02  1728.131     0.000  1038.567   628.312    17.876   317.696   679.689   303.843  1142.301     6.359     1.447     0.204     2.315     0.142     0.241   158.770     1.997    13.759 .00000E+00 0.000E+00 0.000E+00
BIGSUB  35        0 2001.32688E+02  1741.369     0.000  1022.518   614.695    42.520   419.000   631.723   405.294  1239.038     5.104     4.041     0.569     1.806     0.137     0.206   202.021     1.594    15.249 .00000E+00 0.000E+00 0.000E+00
BIGSUB  36        0 2001.22173E+02  1172.690     0.000   794.526   472.795    11.985   287.656   593.843   280.845   992.644     0.721     0.231     0.033     1.316     0.103     0.067   117.955     0.700     4.565 .00000E+00 0.000E+00 0.000E+00
BIGSUB  37        0 2001.42742E+02  1312.221     0.000   889.341   519.544    15.200   311.579   567.820   304.379   999.595     3.591     0.625     0.140     1.667     0.109     0.162   127.397     0.912     8.905 .00000E+00 0.000E+00 0.000E+00
BIGSUB  38        0 2001.13046E+02   907.890     0.000   668.067   408.366    25.976   373.032   501.184   366.392  1009.227     0.333     0.107     0.015     0.710     0.065     0.035   141.650     0.375     3.598 .00000E+00 0.000E+00 0.000E+00
BIGSUB   1        0 2002.18150E+02  1830.775     0.000   986.137   566.541   112.257   344.123   691.948   277.602  1145.913     1.523     3.396     0.427     2.248     0.184     0.142   176.363     2.663    19.655 .00000E+00 0.000E+00 0.000E+00
BIGSUB   2        0 2002.31689E+02  1827.454     0.000   984.550   562.001   110.882   351.377   709.571   284.712  1154.604     1.364     1.920     0.246     2.302     0.185     0.128   160.320     1.513    11.387 .00000E+00 0.000E+00 0.000E+00
BIGSUB   3        0 2002.14302E+01  1841.367     0.000   989.837   572.682   107.592   315.808   773.247   252.241  1152.598     6.468     1.379     0.313     3.063     0.190     0.356   127.110     1.662    18.781 .00000E+00 0.000E+00 0.000E+00
BIGSUB   4        0 2002.27925E+02  1823.146     0.000   982.256   556.384   110.057   360.488   717.732   292.021  1150.198     1.104     1.312     0.169     2.344     0.193     0.107   140.445     1.477    20.689 .00000E+00 0.000E+00 0.000E+00
BIGSUB   5        0 2002.13315E+02  1841.367     0.000  1028.539   585.519   113.726   332.905   739.330   268.467  1165.251     1.161     0.438     0.063     2.315     0.187     0.114   157.454     2.572    17.753 .00000E+00 0.000E+00 0.000E+00
BIGSUB   6        0 2002.18195E+02  1789.673     0.000  1023.541   607.382   101.438   289.584   632.075   239.693  1019.101     5.078     0.794     0.177     1.938     0.149     0.176   147.334     1.652    10.021 .00000E+00 0.000E+00 0.000E+00
BIGSUB   7        0 2002.56151E+02  1833.368     0.000   986.667   549.800   107.894   326.223   734.707   264.951  1166.094     1.494     0.551     0.079     2.423     0.192     0.142   166.435     2.580    15.723 .00000E+00 0.000E+00 0.000E+00
BIGSUB   8        0 2002.65131E+01  1807.376     0.000  1033.513   636.551   106.080   275.061   722.299   225.857  1013.504     4.252     0.964     0.245     2.652     0.159     0.212    65.347     2.589    46.413 .00000E+00 0.000E+00 0.000E+00
BIGSUB   9        0 2002.23969E+01  1807.375     0.000  1033.532   664.562   216.661   395.168   552.487   333.427   952.364     3.597     8.023     1.095     2.198     0.141     0.186    66.450     0.455    34.289 .00000E+00 0.000E+00 0.000E+00
BIGSUB  10        0 2002.17371E+02  1797.542     0.000  1028.041   572.272    94.519   329.196   504.788   278.759  1065.365     6.007     2.349     0.384     1.576     0.113     0.192   281.819     2.630    25.136 .00000E+00 0.000E+00 0.000E+00
BIGSUB  11        0 2002.29789E+02  1739.168     0.000  1017.598   614.850   101.900   319.650   602.932   266.722   957.042     0.703     0.257     0.043     1.865     0.149     0.072    87.388     1.382    33.857 .00000E+00 0.000E+00 0.000E+00
BIGSUB  12        0 2002.21222E+02  1930.134     0.000  1030.202   620.230   132.572   350.649   664.465   296.289  1132.761     3.674     3.338     0.430     2.312     0.156     0.190   172.008     3.190    37.702 .00000E+00 0.000E+00 0.000E+00
BIGSUB  13        0 2002.68669E+02  1808.173     0.000  1000.818   591.142   141.359   512.026   418.428   416.964  1063.744     4.702    14.920     1.921     1.490     0.122     0.247   228.352     3.574    38.365 .00000E+00 0.000E+00 0.000E+00
BIGSUB  14        0 2002.50987E+02  1974.050     0.000   967.552   552.655   147.358   594.737   568.823   497.125  1264.572     5.685     7.239     0.973     1.951     0.153     0.214   198.624     2.248    34.220 .00000E+00 0.000E+00 0.000E+00
BIGSUB  15        0 2002.80486E+01  1807.376     0.000  1033.582   639.463   182.492   327.183   565.954   274.383   990.780     5.109     8.183     1.145     2.199     0.140     0.248   150.442     2.357    36.685 .00000E+00 0.000E+00 0.000E+00
BIGSUB  16        0 2002.17014E+02  1807.376     0.000  1033.629   614.534   103.073   326.433   612.621   271.179  1020.912     2.438     1.178     0.202     2.070     0.152     0.124   137.112     2.607    55.706 .00000E+00 0.000E+00 0.000E+00
BIGSUB  17        0 2002.35608E+02  1704.461     0.000  1032.824   622.577   143.489   342.364   460.586   301.235   924.307     1.176     2.162     0.267     1.706     0.115     0.079   162.485     2.159    28.701 .00000E+00 0.000E+00 0.000E+00
[...]
BIGSUB  35        0 2017.32688E+02  1460.070     0.000  1087.782   541.304    65.745   316.817   530.014   307.563   996.943     6.266     2.624     0.345     1.838     0.134     0.121   159.367     1.585    13.149 .00000E+00 0.000E+00 0.000E+00
BIGSUB  36        0 2017.22173E+02   977.625     0.000   873.248   445.615    54.107   213.866   433.844   206.971   732.784     0.351     0.187     0.027     1.016     0.100     0.040    91.970     0.638     4.104 .00000E+00 0.000E+00 0.000E+00
BIGSUB  37        0 2017.42742E+02  1093.947     0.000   977.195   474.885    61.956   237.803   419.924   230.604   751.927     3.094     0.371     0.070     1.382     0.102     0.096   101.398     1.035    12.565 .00000E+00 0.000E+00 0.000E+00
BIGSUB  38        0 2017.13046E+02   756.872     0.000   729.851   384.995    80.536   283.319   366.995   275.979   760.490     0.153     0.078     0.011     0.545     0.060     0.020   117.515     0.349     3.163 .00000E+00 0.000E+00 0.000E+00
BIGSUB   1        0 2018.18150E+02  2034.873     0.000  1007.661   623.494    95.080   349.335   860.191   309.559  1345.622     2.569     6.198     0.784     2.902     0.255     0.265   175.872     1.999    16.428 .00000E+00 0.000E+00 0.000E+00
BIGSUB   2        0 2018.31689E+02  2031.182     0.000  1006.064   598.209    96.078   361.729   884.068   321.468  1367.043     2.224     3.615     0.466     2.996     0.260     0.233   161.507     1.723    13.787 .00000E+00 0.000E+00 0.000E+00
BIGSUB   3        0 2018.14302E+01  2046.646     0.000  1011.164   607.570    94.717   322.195   948.596   282.402  1358.449     9.278     3.186     0.744     3.564     0.265     0.437   127.451     1.655    16.828 .00000E+00 0.000E+00 0.000E+00
BIGSUB   4        0 2018.27925E+02  2026.394     0.000  1003.731   623.257    93.244   355.024   885.733   316.263  1342.442     1.780     2.511     0.327     3.009     0.268     0.193   140.446     1.489    13.272 .00000E+00 0.000E+00 0.000E+00
BIGSUB   5        0 2018.13315E+02  2046.646     0.000  1051.318   660.398    96.205   322.695   908.519   286.022  1347.315     1.882     1.018     0.147     2.958     0.257     0.203   152.775     1.518     9.003 .00000E+00 0.000E+00 0.000E+00
BIGSUB   6        0 2018.18195E+02  2070.295     0.000  1086.004   560.460    93.199   411.451   882.424   363.090  1423.670     7.897     1.304     0.282     3.682     0.236     0.267   178.156     2.640    17.535 .00000E+00 0.000E+00 0.000E+00
BIGSUB   7        0 2018.56151E+02  2037.755     0.000  1008.089   618.337    91.176   320.489   905.491   285.413  1353.514     2.253     1.187     0.171     3.110     0.265     0.236   162.611     1.685     9.381 .00000E+00 0.000E+00 0.000E+00
BIGSUB   8        0 2018.65131E+01  2090.773     0.000  1096.377   680.241    91.725   335.475   943.427   295.037  1310.662     7.121     1.507     0.371     4.745     0.243     0.304    72.197     1.691    49.238 .00000E+00 0.000E+00 0.000E+00
BIGSUB   9        0 2018.23969E+01  2090.773     0.000  1096.360   627.751   202.687   576.390   748.240   513.249  1340.287     6.517     9.108     1.265     3.063     0.230     0.266    78.798     0.644    52.802 .00000E+00 0.000E+00 0.000E+00
BIGSUB  10        0 2018.17371E+02  2079.397     0.000  1090.700   548.284    85.612   462.895   672.673   412.866  1435.019     9.819     3.237     0.524     3.048     0.180     0.269   349.480     3.369    28.787 .00000E+00 0.000E+00 0.000E+00
BIGSUB  11        0 2018.29789E+02  1798.805     0.000  1052.105   636.751    90.390   394.260   599.548   348.992  1053.906     0.713     0.374     0.064     1.985     0.178     0.080   105.366     1.131    20.043 .00000E+00 0.000E+00 0.000E+00
BIGSUB  12        0 2018.21222E+02  2077.361     0.000  1066.683   625.254   117.583   463.402   710.932   411.560  1324.895     5.070     4.097     0.492     3.213     0.201     0.259   202.403     3.086    46.016 .00000E+00 0.000E+00 0.000E+00
BIGSUB  13        0 2018.68669E+02  1942.236     0.000   984.459   654.518   128.663   540.892   469.365   488.276  1204.717     5.572    12.581     1.725     1.447     0.166     0.296   247.076     3.785    42.563 .00000E+00 0.000E+00 0.000E+00
BIGSUB  14        0 2018.50987E+02  2082.559     0.000   990.984   637.416   136.891   585.508   623.984   531.990  1357.194     7.873     7.152     1.119     2.135     0.204     0.302   201.220     2.062    30.935 .00000E+00 0.000E+00 0.000E+00
BIGSUB  15        0 2018.80486E+01  2090.773     0.000  1096.470   633.977   168.204   458.559   763.980   406.655  1345.694     9.292     8.834     1.270     2.969     0.223     0.354   175.059     2.045    44.958 .00000E+00 0.000E+00 0.000E+00
BIGSUB  16        0 2018.17014E+02  2090.773     0.000  1096.541   712.703    86.223   380.197   767.870   336.497  1271.373     3.840     1.791     0.305     3.292     0.208     0.183   167.006     2.476    53.815 .00000E+00 0.000E+00 0.000E+00
BIGSUB  17        0 2018.35608E+02  2044.026     0.000  1033.321   615.674   136.024   543.196   597.236   485.348  1296.207     2.907     4.068     0.494     2.095     0.172     0.179   213.623     2.458    41.993 .00000E+00 0.000E+00 0.000E+00
BIGSUB  18        0 2018.25428E+02  2069.566     0.000  1062.590   596.223    91.017   415.020   821.971   366.272  1354.603     4.263     1.178     0.238     3.211     0.224     0.248   166.359     2.111    25.145 .00000E+00 0.000E+00 0.000E+00
BIGSUB  19        0 2018.35900E+02  1769.495     0.000  1045.324   615.902   152.545   450.441   425.162   401.244  1031.575     1.482     3.331     0.413     1.309     0.124     0.078   205.168     1.946    25.393 .00000E+00 0.000E+00 0.000E+00
BIGSUB  20        0 2018.33902E+02  1651.957     0.000  1045.149   625.653   122.083   425.915   388.632   376.922   913.823     3.717     6.813     0.883     1.579     0.116     0.218   148.270     2.771    56.020 .00000E+00 0.000E+00 0.000E+00
BIGSUB  21        0 2018.82331E+01  1623.802     0.000  1094.646   614.108    92.382   297.911   601.521   260.498   916.524     3.478     0.919     0.216     2.393     0.166     0.183    54.505     0.986    22.232 .00000E+00 0.000E+00 0.000E+00
BIGSUB  22        0 2018.11681E+02  1621.300     0.000  1093.061   623.380    79.328   245.791   564.374   212.844   915.630    10.977     1.886     0.497     2.897     0.144     0.424   138.411     1.304    40.832 .00000E+00 0.000E+00 0.000E+00
BIGSUB  23        0 2018.27679E+02  1918.040     0.000  1098.044   632.824    87.713   271.094   787.716   234.965  1170.920     2.117     0.994     0.142     2.636     0.221     0.209   148.239     1.862     9.540 .00000E+00 0.000E+00 0.000E+00
BIGSUB  24        0 2018.23037E+02  1846.062     0.000  1045.483   587.473   148.571   492.191   486.210   438.775  1139.147     1.329     4.072     0.533     1.397     0.160     0.119   214.162     1.861    25.372 .00000E+00 0.000E+00 0.000E+00
BIGSUB  25        0 2018.20024E+02  1860.308     0.000  1053.036   610.437   165.365   528.087   537.763   470.058  1120.862     4.305     7.449     0.929     1.808     0.145     0.204   113.041     1.408    40.871 .00000E+00 0.000E+00 0.000E+00
BIGSUB  26        0 2018.17810E+02  1908.773     0.000  1092.813   672.875    74.809   330.399   727.041   289.672  1131.725     0.943     0.481     0.069     2.377     0.207     0.101   115.011     1.312    11.214 .00000E+00 0.000E+00 0.000E+00
BIGSUB  27        0 2018.51552E+02  1678.065     0.000  1093.240   654.144   119.326   272.300   519.417   236.416   907.834     2.855     2.495     0.371     1.713     0.156     0.178   152.001     1.943    15.084 .00000E+00 0.000E+00 0.000E+00
BIGSUB  28        0 2018.42660E+02  1932.103     0.000  1106.087   634.162    85.407   311.298   759.731   272.090  1172.401     1.688     0.810     0.116     2.538     0.217     0.170   140.580     1.678    10.641 .00000E+00 0.000E+00 0.000E+00
BIGSUB  29        0 2018.11482E+02  1845.142     0.000  1044.570   577.859   167.851   500.403   506.606   445.590  1154.119     1.594     4.602     0.576     1.908     0.155     0.162   201.923     1.931    45.980 .00000E+00 0.000E+00 0.000E+00
BIGSUB  30        0 2018.49984E+02  1861.974     0.000  1033.772   613.138   153.014   447.707   541.570   397.160  1130.979     4.897     5.252     0.666     1.830     0.151     0.225   192.249     2.274    38.372 .00000E+00 0.000E+00 0.000E+00
BIGSUB  31        0 2018.79636E+02  1618.443     0.000  1091.251   597.325   106.496   308.028   547.684   270.019   932.565     5.996     1.965     0.396     2.272     0.152     0.293   114.862     1.705    34.610 .00000E+00 0.000E+00 0.000E+00
BIGSUB  32        0 2018.80153E+01  1678.065     0.000  1093.275   627.164   170.630   324.952   463.925   282.782   929.565     7.052     7.052     1.040     1.551     0.148     0.279   182.858     2.265    21.732 .00000E+00 0.000E+00 0.000E+00
BIGSUB  33        0 2018.19738E+02  1828.244     0.000  1015.574   621.055   143.276   435.206   580.418   386.516  1112.918     2.496     3.042     0.428     1.786     0.167     0.145   145.984     1.388    33.946 .00000E+00 0.000E+00 0.000E+00
BIGSUB  34        0 2018.16786E+02  1678.065     0.000  1093.787   587.812    95.577   257.625   616.717   221.504   977.025     6.356     2.341     0.296     2.267     0.170     0.282   138.803     2.680    15.968 .00000E+00 0.000E+00 0.000E+00
BIGSUB  35        0 2018.32688E+02  1664.239     0.000  1035.937   562.987   120.204   337.590   563.579   295.959  1041.400     3.814     3.069     0.470     1.762     0.158     0.190   181.861     2.043    18.101 .00000E+00 0.000E+00 0.000E+00
BIGSUB  36        0 2018.22173E+02  1396.060     0.000   857.086   483.029    85.384   236.125   811.380   202.720  1122.942     1.070     0.561     0.080     2.042     0.188     0.122   108.842     1.163     6.872 .00000E+00 0.000E+00 0.000E+00
BIGSUB  37        0 2018.42742E+02  1562.168     0.000   959.115   492.964    92.559   279.850   813.182   241.311  1174.292     4.489     1.280     0.266     2.358     0.207     0.256   119.799     1.407    11.306 .00000E+00 0.000E+00 0.000E+00
BIGSUB  38        0 2018.13046E+02  1080.822     0.000   716.628   394.575   114.678   335.348   736.243   290.779  1167.521     0.521     0.257     0.037     1.215     0.122     0.067   140.498     0.601     5.923 .00000E+00 0.000E+00 0.000E+00
BIGSUB   1        0 25.0.18150E+02  1904.857     0.000  1004.031   526.030    95.080   394.757   761.731   360.770  1317.833     4.822     6.686     0.833     2.301     0.192     0.292   195.331     2.071    16.749 .00000E+00 0.000E+00 0.000E+00
BIGSUB   2        0 25.0.31689E+02  1901.402     0.000  1002.444   509.283    96.078   406.755   779.952   372.895  1332.342     4.318     3.739     0.471     2.351     0.192     0.266   179.494     1.560    12.839 .00000E+00 0.000E+00 0.000E+00
BIGSUB   3        0 25.0.14302E+01  1915.877     0.000  1007.504   534.030    94.717   363.012   843.015   330.080  1314.818    12.999     1.882     0.450     3.240     0.203     0.562   141.723     1.931    24.533 .00000E+00 0.000E+00 0.000E+00
BIGSUB   4        0 25.0.27925E+02  1896.920     0.000  1000.114   525.522    93.244   404.454   787.560   371.536  1315.424     3.504     2.560     0.325     2.386     0.204     0.227   156.328     1.401    16.501 .00000E+00 0.000E+00 0.000E+00
BIGSUB   5        0 25.0.13315E+02  1915.877     0.000  1047.532   566.160    96.205   369.371   811.024   337.963  1319.859     3.736     0.699     0.098     2.352     0.197     0.241   170.872     1.725    11.434 .00000E+00 0.000E+00 0.000E+00
BIGSUB   6        0 25.0.18195E+02  1806.007     0.000  1064.628   556.912    93.199   380.798   679.195   346.583  1195.338     8.802     0.916     0.194     2.176     0.150     0.283   169.560     2.065    13.551 .00000E+00 0.000E+00 0.000E+00
BIGSUB   7        0 25.0.56151E+02  1907.555     0.000  1004.454   522.040    91.176   365.505   805.591   336.578  1323.885     4.716     0.827     0.116     2.464     0.202     0.282   181.715     1.861    11.437 .00000E+00 0.000E+00 0.000E+00
BIGSUB   8        0 25.0.65131E+01  1823.872     0.000  1074.752   635.350    91.725   330.104   756.012   300.518  1127.946     6.728     1.157     0.277     3.031     0.172     0.314    71.417     1.710    41.327 .00000E+00 0.000E+00 0.000E+00
BIGSUB   9        0 25.0.23969E+01  1823.871     0.000  1074.722   625.673   202.687   517.147   578.998   475.095  1125.741     5.365    10.838     1.448     2.294     0.156     0.251    71.647     0.511    43.666 .00000E+00 0.000E+00 0.000E+00
BIGSUB  10        0 25.0.17371E+02  1813.948     0.000  1069.208   538.295    85.612   413.297   526.371   377.533  1214.627     9.023     3.046     0.468     1.782     0.117     0.276   310.723     2.787    26.577 .00000E+00 0.000E+00 0.000E+00
BIGSUB  11        0 25.0.29789E+02  1858.304     0.000  1062.538   612.995    90.390   414.550   694.451   381.432  1183.169     2.803     0.440     0.070     2.200     0.169     0.176   107.287     1.065    29.467 .00000E+00 0.000E+00 0.000E+00
BIGSUB  12        0 25.0.21222E+02  1908.203     0.000  1079.493   607.299   117.583   418.194   665.685   382.208  1232.231     6.122     3.820     0.478     2.483     0.158     0.289   184.338     2.604    36.509 .00000E+00 0.000E+00 0.000E+00
BIGSUB  13        0 25.0.68669E+02  1887.870     0.000  1001.025   567.416   128.663   536.633   514.058   494.620  1252.288    10.034    23.294     3.000     1.606     0.152     0.406   243.611     3.546    42.360 .00000E+00 0.000E+00 0.000E+00
BIGSUB  14        0 25.0.50987E+02  2060.046     0.000  1002.461   551.631   136.891   622.583   646.720   576.533  1430.748    11.308    10.820     1.478     2.097     0.176     0.345   207.494     2.166    36.537 .00000E+00 0.000E+00 0.000E+00
BIGSUB  15        0 25.0.80486E+01  1823.872     0.000  1074.842   615.973   168.204   419.607   595.774   383.278  1141.078     8.029    10.709     1.460     2.204     0.152     0.348   162.025     1.842    39.407 .00000E+00 0.000E+00 0.000E+00
BIGSUB  16        0 25.0.17014E+02  1823.872     0.000  1074.913   641.663    86.223   375.103   625.976   341.880  1119.444     4.185     1.605     0.258     2.176     0.156     0.194   151.588     1.968    41.050 .00000E+00 0.000E+00 0.000E+00
BIGSUB  17        0 25.0.35608E+02  1899.773     0.000  1062.146   610.843   136.024   479.612   588.032   440.290  1220.106     3.855     5.031     0.619     2.061     0.146     0.211   191.784     1.974    32.134 .00000E+00 0.000E+00 0.000E+00
BIGSUB  18        0 25.0.25428E+02  1901.043     0.000  1075.359   588.117    91.017   377.651   754.302   344.095  1250.929     6.666     0.914     0.181     2.455     0.166     0.306   152.531     1.762    20.940 .00000E+00 0.000E+00 0.000E+00
BIGSUB  19        0 25.0.35900E+02  1848.537     0.000  1053.411   617.040   152.545   446.382   561.484   409.534  1172.582     3.145     7.918     0.979     1.775     0.135     0.181   201.563     1.942    22.152 .00000E+00 0.000E+00 0.000E+00
BIGSUB  20        0 25.0.33902E+02  1705.405     0.000  1062.727   614.425   122.083   414.983   503.645   379.755  1027.776     4.479    11.368     1.452     1.996     0.129     0.270   144.377     2.296    49.474 .00000E+00 0.000E+00 0.000E+00
BIGSUB  21        0 25.0.82331E+01  1722.971     0.000  1081.663   607.742    92.382   339.547   686.531   308.823  1055.709     4.987     0.938     0.219     2.708     0.154     0.249    60.355     0.817    33.910 .00000E+00 0.000E+00 0.000E+00
BIGSUB  22        0 25.0.11681E+02  1720.315     0.000  1080.101   604.800    79.328   290.208   649.554   262.071  1061.292    13.812     2.009     0.502     2.999     0.138     0.526   149.667     1.533    43.337 .00000E+00 0.000E+00 0.000E+00
BIGSUB  23        0 25.0.27679E+02  1726.675     0.000  1078.866   592.212    87.713   282.322   682.741   254.957  1086.540     4.812     0.713     0.099     2.046     0.156     0.263   148.842     1.685    11.738 .00000E+00 0.000E+00 0.000E+00
BIGSUB  24        0 25.0.23037E+02  1795.262     0.000  1067.625   601.796   148.571   456.103   513.359   417.704  1133.410     2.801     7.427     0.942     1.563     0.136     0.183   202.348     1.573    24.530 .00000E+00 0.000E+00 0.000E+00
BIGSUB  25        0 25.0.20024E+02  1809.116     0.000  1075.432   613.850   165.365   493.961   562.774   453.406  1124.081     5.176    10.894     1.365     2.191     0.131     0.262   107.901     1.386    36.597 .00000E+00 0.000E+00 0.000E+00
BIGSUB  26        0 25.0.17810E+02  1718.333     0.000  1073.694   608.008    74.809   340.347   640.940   308.933  1065.489     2.209     0.362     0.050     1.890     0.152     0.143   115.616     1.580    15.524 .00000E+00 0.000E+00 0.000E+00
BIGSUB  27        0 25.0.51552E+02  1811.705     0.000  1085.078   623.586   119.326   332.445   657.383   302.733  1127.617     5.712     3.771     0.515     2.101     0.164     0.277   167.501     2.009    19.011 .00000E+00 0.000E+00 0.000E+00
BIGSUB  28        0 25.0.42660E+02  1739.335     0.000  1086.715   592.765    85.407   318.722   658.517   289.341  1088.069     3.876     0.585     0.081     1.971     0.155     0.219   140.211     1.665    13.926 .00000E+00 0.000E+00 0.000E+00
BIGSUB  29        0 25.0.11482E+02  1794.367     0.000  1066.772   596.948   167.851   459.685   526.284   420.913  1137.519     2.229     6.987     0.877     2.155     0.135     0.206   190.321     1.592    41.684 .00000E+00 0.000E+00 0.000E+00
BIGSUB  30        0 25.0.49984E+02  1914.806     0.000  1055.789   610.340   153.014   457.262   622.969   419.537  1235.901     7.253     9.028     1.146     2.457     0.140     0.335   193.395     2.040    34.929 .00000E+00 0.000E+00 0.000E+00
BIGSUB  31        0 25.0.79636E+02  1717.284     0.000  1078.331   596.176   106.496   343.910   627.994   313.110  1064.646     8.553     2.545     0.464     2.476     0.141     0.391   123.542     1.482    41.430 .00000E+00 0.000E+00 0.000E+00
BIGSUB  32        0 25.0.80153E+01  1811.704     0.000  1085.087   615.928   170.630   380.105   587.567   346.155  1131.923    10.617    11.632     1.568     1.917     0.151     0.375   198.201     2.124    21.555 .00000E+00 0.000E+00 0.000E+00
BIGSUB  33        0 25.0.19738E+02  1880.119     0.000  1037.057   613.042   143.276   448.360   663.517   411.554  1222.561     4.445     5.476     0.731     2.276     0.154     0.241   147.490     1.401    36.719 .00000E+00 0.000E+00 0.000E+00
BIGSUB  34        0 25.0.16786E+02  1811.705     0.000  1085.525   578.392    95.577   301.977   742.353   272.773  1172.619    10.460     1.985     0.258     2.660     0.161     0.384   157.492     2.395    15.827 .00000E+00 0.000E+00 0.000E+00
BIGSUB  35        0 25.0.32688E+02  1782.129     0.000  1034.783   561.568   120.204   385.771   679.032   351.485  1227.328     7.792     5.254     0.729     2.049     0.153     0.301   196.811     2.202    18.731 .00000E+00 0.000E+00 0.000E+00
BIGSUB  36        0 25.0.22173E+02  1214.250     0.000   831.367   449.482    85.384   264.172   613.917   237.813   967.916     2.449     0.382     0.053     1.398     0.115     0.150   116.186     0.997     6.698 .00000E+00 0.000E+00 0.000E+00
BIGSUB  37        0 25.0.42742E+02  1358.726     0.000   930.393   479.121    92.559   295.543   600.941   266.081   993.077     6.251     0.823     0.164     1.660     0.124     0.271   126.055     1.182    12.410 .00000E+00 0.000E+00 0.000E+00
BIGSUB  38        0 25.0.13046E+02   940.066     0.000   695.624   382.085   114.678   350.992   536.087   317.446   994.970     1.057     0.181     0.025     0.792     0.074     0.078   141.437     0.445     4.542 .00000E+00 0.000E+00 0.000E+00
