1
    SWAT Jun 01 2011    VER 2009/Rev. 481                                                                0/ 0/   0      0: 0: 0

    General Input/Output section (file.cio):                                        
    2022/4/11 0:00:00 ARCGIS-SWAT interface AV                                      
                                                                                    


LULC HRU      GIS  SUB  MGT  MON   AREAkm2  PRECIPmm
FRST   1000010001    1    0 1994.11955E+02  2122.300
FRST   1000010001    1    0 1995.11955E+02  1426.700
FRST   1000010001    1    0 1996.11955E+02  1996.700
FRST   1000010001    1    0 1997.11955E+02  2563.000
FRST   1000010001    1    0 1998.11955E+02  2106.000
FRST   1000010001    1    0 1999.11955E+02  1575.300
FRST   1000010001    1    0 2000.11955E+02  2300.000
FRST   1000010001    1    0 2001.11955E+02  1673.500
FRST   1000010001    1    0 2002.11955E+02  1798.500
FRST   1000010001    1    0 2003.11955E+02  1480.700
FRST   1000010001    1    0 2004.11955E+02  1473.600
FRST   1000010001    1    0 2005.11955E+02  1851.000
FRST   1000010001    1    0 2006.11955E+02  2474.600
FRST   1000010001    1    0 2007.11955E+02  1768.300
FRST   1000010001    1    0 2008.11955E+02  1634.000
FRST   1000010001    1    0 2009.11955E+02  1341.300
FRST   1000010001    1    0 2010.11955E+02  2284.100
FRST   1000010001    1    0 2011.11955E+02  1475.000
FRST   1000010001    1    0 2012.11955E+02  1902.300
FRST   1000010001    1    0 2013.11955E+02  1572.000
FRST   1000010001    1    0 2014.11955E+02  1694.000
FRST   1000010001    1    0 2015.11955E+02  1933.500
FRST   1000010001    1    0 2016.11955E+02  2765.500
FRST   1000010001    1    0 2017.11955E+02  1571.000
FRST   1000010001    1    0 2018.11955E+02  1999.000
FRST   1000010001    1    0 25.0.11955E+02  1871.276
